   09
pair.xyz   00
    C   1.349800e+001  -3.026000e+000   2.906400e+001
    C   1.342800e+001  -1.564000e+000   2.866200e+001
    O   1.437900e+001  -7.880000e-001   2.883700e+001
    N   1.231100e+001  -1.183000e+000   2.813300e+001
    H   1.230400e+001  -2.310000e-001   2.778500e+001
    H   1.143700e+001  -1.618000e+000   2.837400e+001
    H   1.339400e+001  -3.017000e+000   3.015200e+001
    H   1.450500e+001  -3.401000e+000   2.886200e+001
    H   1.271870e+001  -3.687790e+000   2.865813e+001
=== === ===

sidechain-sidechain interaction