   11
pair.xyz   00
    C   7.033000e+000   3.065300e+001   9.794000e+000
    C   8.481000e+000   3.017800e+001   9.601000e+000
    C   6.621000e+000   3.181300e+001   8.896000e+000
    H   6.360000e+000   2.981600e+001   9.608000e+000
    H   6.871000e+000   3.096800e+001   1.082300e+001
    H   9.131000e+000   3.104800e+001   9.503000e+000
    H   6.746000e+000   3.156500e+001   7.847000e+000
    H   5.580000e+000   3.205800e+001   9.087000e+000
    H   7.231000e+000   3.268700e+001   9.124000e+000
    H   8.807178e+000   2.958333e+001   1.046701e+001
    H   8.554131e+000   2.958148e+001   8.679689e+000
=== === ===

backbone-sidechain interaction