   08
pair.xyz   00
    C   2.181800e+001   7.121000e+000   9.276000e+000
    C   2.237800e+001   8.010000e+000   1.038100e+001
    H   2.119400e+001   6.335000e+000   9.703000e+000
    H   2.121100e+001   7.712000e+000   8.594000e+000
    H   2.263600e+001   6.672000e+000   8.712000e+000
    H   2.299100e+001   8.786000e+000   9.931000e+000
    H   2.298360e+001   7.390762e+000   1.105908e+001
    H   2.155284e+001   8.488942e+000   1.092847e+001
=== === ===

sidechain-sidechain interaction