   12
pair.xyz   00
    C   8.025000e+000   2.150800e+001   1.940600e+001
    C   9.416000e+000   2.349400e+001   1.670500e+001
    C   8.643000e+000   2.201200e+001   1.813300e+001
    C   9.326000e+000   2.134500e+001   1.716600e+001
    N   8.711000e+000   2.335200e+001   1.781800e+001
    N   9.804000e+000   2.229400e+001   1.628500e+001
    H   9.642000e+000   2.443600e+001   1.622000e+001
    H   1.046500e+001   2.213900e+001   1.553100e+001
    H   9.522000e+000   2.028100e+001   1.714400e+001
    H   7.733000e+000   2.046600e+001   1.927500e+001
    H   7.122000e+000   2.208600e+001   1.960000e+001
    H   8.707466e+000   2.159827e+001   2.026396e+001
=== === ===

sidechain-sidechain interaction