   12
pair.xyz   00
    C   1.784000e+000  -1.262000e+001   2.659000e+000
    C  -8.720000e-001  -1.393900e+001   5.064000e+000
    C   8.910000e-001  -1.357600e+001   3.471000e+000
    O   9.380000e-001  -1.479000e+001   3.284000e+000
    N   6.900000e-002  -1.306100e+001   4.371000e+000
    H   1.915000e+000  -1.166600e+001   3.171000e+000
    H   7.600000e-002  -1.207200e+001   4.579000e+000
    H  -3.940000e-001  -1.489200e+001   5.292000e+000
    H   2.758861e+000  -1.309992e+001   2.487761e+000
    H   1.373673e+000  -1.246864e+001   1.649683e+000
    H  -1.151155e+000  -1.348945e+001   6.028354e+000
    H  -1.768040e+000  -1.414856e+001   4.461341e+000
=== === ===

backbone-sidechain interaction