   12
pair.xyz   00
    C   2.425600e+001   3.613500e+001   6.005700e+001
    C   2.273900e+001   3.515200e+001   5.670500e+001
    C   2.359300e+001   3.626100e+001   5.869300e+001
    O   2.330500e+001   3.736700e+001   5.824000e+001
    N   2.334700e+001   3.513700e+001   5.802900e+001
    H   2.363700e+001   3.669200e+001   6.076200e+001
    H   2.353500e+001   3.425100e+001   5.847900e+001
    H   2.332800e+001   3.580200e+001   5.605600e+001
    H   2.435230e+001   3.508853e+001   6.038200e+001
    H   2.524127e+001   3.662296e+001   6.002317e+001
    H   2.276205e+001   3.414352e+001   5.626631e+001
    H   2.170093e+001   3.551583e+001   5.671078e+001
=== === ===

backbone-sidechain interaction