   15
pair.xyz   00
    C   2.589500e+001   3.847800e+001   5.615400e+001
    C   2.617200e+001   3.599100e+001   5.595800e+001
    C   2.631000e+001   3.725500e+001   5.538800e+001
    C   2.651700e+001   3.484700e+001   5.523800e+001
    C   2.680700e+001   3.736800e+001   5.408700e+001
    C   2.701300e+001   3.496300e+001   5.393800e+001
    C   2.715800e+001   3.622700e+001   5.336100e+001
    H   2.579900e+001   3.588700e+001   5.696500e+001
    H   2.638000e+001   3.387100e+001   5.568100e+001
    H   2.662500e+001   3.926700e+001   5.596100e+001
    H   2.592200e+001   3.825800e+001   5.722100e+001
    H   2.691900e+001   3.834100e+001   5.363100e+001
    H   2.728200e+001   3.407400e+001   5.338900e+001
    H   2.753500e+001   3.633300e+001   5.235500e+001
    H   2.489232e+001   3.884843e+001   5.589434e+001
=== === ===

backbone-sidechain interaction