   08
pair.xyz   00
    C   2.817800e+001   3.278000e+001   2.707300e+001
    C   2.695400e+001   3.320000e+001   2.782700e+001
    H   2.877700e+001   3.363500e+001   2.676200e+001
    H   2.879200e+001   3.213600e+001   2.770100e+001
    H   2.787700e+001   3.221300e+001   2.619300e+001
    H   2.727000e+001   3.374500e+001   2.871300e+001
    H   2.631871e+001   3.385746e+001   2.721532e+001
    H   2.639777e+001   3.231538e+001   2.817058e+001
=== === ===

backbone-sidechain interaction