   22
pair.xyz   00
    C   3.480400e+001   2.590000e+001  -1.528000e+000
    C   3.447300e+001   2.570900e+001  -5.200000e-002
    C   3.530300e+001   2.244600e+001  -3.049000e+000
    C   3.605700e+001   2.942100e+001  -1.915000e+000
    C   3.577600e+001   2.704900e+001  -1.739000e+000
    C   3.461000e+001   2.360300e+001  -2.385000e+000
    O   3.694100e+001   2.683600e+001  -1.965000e+000
    O   3.341300e+001   2.357300e+001  -2.123000e+000
    N   3.536300e+001   2.466800e+001  -2.128000e+000
    N   3.525200e+001   2.826200e+001  -1.662000e+000
    H   3.389000e+001   2.614900e+001  -2.063000e+000
    H   3.633200e+001   2.467300e+001  -2.428000e+000
    H   3.415900e+001   2.667200e+001   3.560000e-001
    H   3.361200e+001   2.504400e+001   3.000000e-003
    H   3.425700e+001   2.837300e+001  -1.497000e+000
    H   3.627100e+001   2.229400e+001  -2.573000e+000
    H   3.687100e+001   2.947100e+001  -1.193000e+000
    H   3.648800e+001   2.935300e+001  -2.916000e+000
    H   3.525036e+001   2.529212e+001   6.052029e-001
    H   3.467913e+001   2.155194e+001  -2.902521e+000
    H   3.543517e+001   2.266676e+001  -4.118485e+000
    H   3.546836e+001   3.034758e+001  -1.844627e+000
=== === ===

backbone-sidechain interaction