   16
pair.xyz   00
    C   2.675000e+000  -1.864400e+001  -5.470000e-001
    C   1.150000e-001  -1.582800e+001  -6.780000e-001
    C  -5.350000e-001  -1.600200e+001   5.450000e-001
    C   1.161000e+000  -1.668800e+001  -1.014000e+000
    C   1.556000e+000  -1.771300e+001  -1.530000e-001
    C  -1.480000e-001  -1.702600e+001   1.410000e+000
    C   8.850000e-001  -1.788100e+001   1.053000e+000
    O  -1.546000e+000  -1.518200e+001   9.290000e-001
    H  -1.780000e-001  -1.503200e+001  -1.343000e+000
    H   1.672000e+000  -1.655400e+001  -1.956000e+000
    H  -6.440000e-001  -1.715100e+001   2.362000e+000
    H  -1.825000e+000  -1.538200e+001   1.826000e+000
    H   3.338000e+000  -1.879600e+001   3.040000e-001
    H   3.265000e+000  -1.815000e+001  -1.320000e+000
    H   1.188000e+000  -1.866500e+001   1.732000e+000
    H   2.317431e+000  -1.961383e+001  -9.232750e-001
=== === ===

backbone-sidechain interaction