   16
pair.xyz   00
    C   3.360100e+001  -6.034000e+000   6.470400e+001
    C   3.100700e+001  -7.032000e+000   6.206500e+001
    C   2.989000e+001  -7.245000e+000   6.287100e+001
    C   3.221000e+001  -6.641000e+000   6.266700e+001
    C   3.230100e+001  -6.448000e+000   6.404600e+001
    C   2.996900e+001  -7.067000e+000   6.425200e+001
    C   3.116900e+001  -6.667000e+000   6.482400e+001
    O   2.868300e+001  -7.593000e+000   6.237700e+001
    H   3.092600e+001  -7.153000e+000   6.099700e+001
    H   3.308200e+001  -6.476000e+000   6.204800e+001
    H   2.911200e+001  -7.251000e+000   6.487000e+001
    H   2.802700e+001  -7.661000e+000   6.307000e+001
    H   3.335700e+001  -5.248000e+000   6.541600e+001
    H   3.426600e+001  -5.596000e+000   6.395800e+001
    H   3.122000e+001  -6.524000e+000   6.589400e+001
    H   3.411890e+001  -6.846405e+000   6.523483e+001
=== === ===

sidechain-sidechain interaction