   08
pair.xyz   00
    C   1.513500e+001   1.069600e+001   1.300600e+001
    C   1.604300e+001   1.171300e+001   1.235300e+001
    H   1.568700e+001   9.771000e+000   1.317100e+001
    H   1.428900e+001   1.048300e+001   1.236100e+001
    H   1.477800e+001   1.106800e+001   1.396600e+001
    H   1.635600e+001   1.135300e+001   1.137200e+001
    H   1.691400e+001   1.175900e+001   1.299400e+001
    H   1.559887e+001   1.271498e+001   1.225931e+001
=== === ===

sidechain-sidechain interaction