   08
pair.xyz   00
    C   1.741500e+001   9.875000e+000   1.598200e+001
    C   1.747500e+001   8.356000e+000   1.581900e+001
    H   1.637800e+001   1.016900e+001   1.614300e+001
    H   1.776900e+001   1.036600e+001   1.508100e+001
    H   1.801700e+001   1.018500e+001   1.683500e+001
    H   1.686300e+001   8.084000e+000   1.495600e+001
    H   1.705810e+001   7.868611e+000   1.671267e+001
    H   1.851418e+001   8.039011e+000   1.564688e+001
=== === ===

sidechain-sidechain interaction