   15
pair.xyz   00
    C   2.781800e+001   3.487000e+000   3.142600e+001
    C   2.478200e+001   2.134000e+000   2.951300e+001
    C   2.586800e+001   2.208000e+000   3.036700e+001
    C   2.436700e+001   3.222000e+000   2.876600e+001
    C   2.662100e+001   3.370000e+000   3.049200e+001
    C   2.511700e+001   4.390000e+000   2.887700e+001
    C   2.621800e+001   4.472000e+000   2.974400e+001
    H   2.423600e+001   1.205000e+000   2.943700e+001
    H   2.614000e+001   1.338000e+000   3.094600e+001
    H   2.350900e+001   3.161000e+000   2.810900e+001
    H   2.482100e+001   5.254000e+000   2.830300e+001
    H   2.760100e+001   2.931000e+000   3.233900e+001
    H   2.793600e+001   4.532000e+000   3.171700e+001
    H   2.676500e+001   5.393000e+000   2.983000e+001
    H   2.877183e+001   3.136877e+000   3.100456e+001
=== === ===

sidechain-sidechain interaction