   08
pair.xyz   00
    C   2.052900e+001   3.939400e+001   5.512600e+001
    C   1.953200e+001   3.861600e+001   5.597500e+001
    H   2.046700e+001   3.909900e+001   5.408200e+001
    H   2.029600e+001   4.045300e+001   5.518700e+001
    H   2.154200e+001   3.924100e+001   5.549300e+001
    H   1.852600e+001   3.895400e+001   5.572600e+001
    H   1.959759e+001   3.753586e+001   5.577751e+001
    H   1.970345e+001   3.881711e+001   5.704278e+001
=== === ===

sidechain-sidechain interaction