   08
pair.xyz   00
    C   1.824600e+001   4.062100e+001   5.274600e+001
    C   1.767500e+001   4.140600e+001   5.157100e+001
    H   1.751500e+001   3.990400e+001   5.312400e+001
    H   1.914100e+001   4.009500e+001   5.241900e+001
    H   1.852500e+001   4.130700e+001   5.354700e+001
    H   1.845800e+001   4.206200e+001   5.118700e+001
    H   1.683363e+001   4.202627e+001   5.191358e+001
    H   1.739854e+001   4.071917e+001   5.075746e+001
=== === ===

sidechain-sidechain interaction