   12
pair.xyz   00
    C   2.367900e+001   3.913800e+001   5.209100e+001
    C   2.450100e+001   3.899300e+001   5.579300e+001
    C   2.363300e+001   3.863700e+001   5.352600e+001
    O   2.290700e+001   3.769300e+001   5.385800e+001
    N   2.441200e+001   3.929300e+001   5.437500e+001
    H   2.460000e+001   3.970400e+001   5.196700e+001
    H   2.497000e+001   4.006400e+001   5.402800e+001
    H   2.376000e+001   3.824600e+001   5.606500e+001
    H   2.366015e+001   3.831672e+001   5.135946e+001
    H   2.285293e+001   3.984052e+001   5.190639e+001
    H   2.550368e+001   3.862257e+001   5.605266e+001
    H   2.430198e+001   3.992125e+001   5.634864e+001
=== === ===

backbone-sidechain interaction