   08
pair.xyz   00
    C   3.372900e+001  -2.775000e+000   6.122400e+001
    C   3.300300e+001  -3.747000e+000   6.029600e+001
    H   3.322100e+001  -1.811000e+000   6.124500e+001
    H   3.374500e+001  -3.187000e+000   6.223300e+001
    H   3.475500e+001  -2.637000e+000   6.088500e+001
    H   3.196200e+001  -3.816000e+000   6.061400e+001
    H   3.343300e+001  -4.729000e+000   6.046600e+001
    H   3.304007e+001  -3.500368e+000   5.922465e+001
=== === ===

sidechain-sidechain interaction