   08
pair.xyz   00
    C   8.613000e+000   2.584000e+000   2.187500e+001
    C   7.088000e+000   2.655000e+000   2.176900e+001
    H   8.996000e+000   1.783000e+000   2.125600e+001
    H   9.062000e+000   3.522000e+000   2.155200e+001
    H   8.925000e+000   2.427000e+000   2.290800e+001
    H   6.741000e+000   3.400000e+000   2.248400e+001
    H   6.618352e+000   1.690165e+000   2.201092e+001
    H   6.782116e+000   2.965182e+000   2.075894e+001
=== === ===

sidechain-sidechain interaction