   09
pair.xyz   00
    C  -4.939000e+000  -1.380100e+001  -4.416000e+000
    C  -3.786000e+000  -1.399300e+001  -3.442000e+000
    O  -4.857000e+000  -1.248900e+001  -4.970000e+000
    H  -4.894000e+000  -1.454900e+001  -5.209000e+000
    H  -5.882000e+000  -1.391300e+001  -3.879000e+000
    H  -3.887000e+000  -1.495300e+001  -2.937000e+000
    H  -5.718000e+000  -1.228100e+001  -5.353000e+000
    H  -3.839476e+000  -1.315923e+001  -2.726480e+000
    H  -2.871526e+000  -1.399011e+001  -4.053334e+000
=== === ===

sidechain-sidechain interaction