   15
pair.xyz   00
    C   2.303100e+001   1.914100e+001   2.170900e+001
    C   2.622800e+001   2.095700e+001   2.267300e+001
    C   2.700200e+001   2.075900e+001   2.152900e+001
    C   2.492400e+001   2.044700e+001   2.273300e+001
    C   2.440800e+001   1.972400e+001   2.165100e+001
    C   2.649200e+001   2.004000e+001   2.045900e+001
    C   2.519800e+001   1.953000e+001   2.051600e+001
    H   2.663500e+001   2.150500e+001   2.351100e+001
    H   2.801100e+001   2.114700e+001   2.148800e+001
    H   2.433400e+001   2.059000e+001   2.362700e+001
    H   2.711000e+001   1.985300e+001   1.959200e+001
    H   2.286300e+001   1.875900e+001   2.271800e+001
    H   2.297300e+001   1.829000e+001   2.103100e+001
    H   2.481600e+001   1.895000e+001   1.968800e+001
    H   2.222671e+001   1.984556e+001   2.145071e+001
=== === ===

sidechain-sidechain interaction