   08
pair.xyz   00
    C  -2.598000e+000   8.393000e+000   4.916700e+001
    C  -1.827000e+000   7.651000e+000   4.807200e+001
    H  -1.908000e+000   8.994000e+000   4.975900e+001
    H  -3.330000e+000   9.055000e+000   4.870600e+001
    H  -3.107000e+000   7.684000e+000   4.981900e+001
    H  -1.313000e+000   8.393000e+000   4.746300e+001
    H  -1.080418e+000   6.987132e+000   4.853232e+001
    H  -2.517906e+000   7.085779e+000   4.742921e+001
=== === ===

sidechain-sidechain interaction