   11
pair.xyz   00
    C   9.749000e+000   2.164500e+001   4.700000e+000
    C   8.423000e+000   2.101500e+001   4.272000e+000
    C   1.064900e+001   2.205700e+001   3.528000e+000
    H   9.547000e+000   2.251200e+001   5.324000e+000
    H   1.028600e+001   2.092300e+001   5.313000e+000
    H   8.060000e+000   2.041200e+001   5.104000e+000
    H   8.579000e+000   2.033200e+001   3.440000e+000
    H   1.020000e+001   2.286800e+001   2.960000e+000
    H   1.158000e+001   2.246500e+001   3.927000e+000
    H   7.628957e+000   2.173797e+001   4.033643e+000
    H   1.087126e+001   2.122407e+001   2.844747e+000
=== === ===

sidechain-sidechain interaction