   09
pair.xyz   00
    C  -5.912000e+000   6.471000e+000   4.914900e+001
    C  -6.873000e+000   7.345000e+000   4.996400e+001
    O  -6.537000e+000   5.235000e+000   4.884500e+001
    H  -5.649000e+000   6.987000e+000   4.822400e+001
    H  -5.006000e+000   6.290000e+000   4.972800e+001
    H  -7.103000e+000   6.816000e+000   5.088900e+001
    H  -6.052000e+000   4.812000e+000   4.812400e+001
    H  -7.807667e+000   7.509719e+000   4.940788e+001
    H  -6.391106e+000   8.296487e+000   5.023317e+001
=== === ===

sidechain-sidechain interaction