   08
pair.xyz   00
    C   3.882900e+001   1.807800e+001  -1.435000e+000
    C   3.813700e+001   1.817900e+001  -8.000000e-002
    H   3.820100e+001   1.850100e+001  -2.219000e+000
    H   3.977200e+001   1.862400e+001  -1.398000e+000
    H   3.903500e+001   1.703200e+001  -1.667000e+000
    H   3.879500e+001   1.775500e+001   6.820000e-001
    H   3.719354e+001   1.761368e+001  -9.735962e-002
    H   3.795638e+001   1.923392e+001   1.740152e-001
=== === ===

backbone-sidechain interaction