   11
pair.xyz   00
    C   2.393900e+001   8.088000e+000  -1.066000e+000
    C   2.391100e+001   8.128000e+000   4.470000e-001
    C   2.316400e+001   6.863000e+000  -1.596000e+000
    H   2.346700e+001   8.996000e+000  -1.445000e+000
    H   2.495800e+001   8.058000e+000  -1.441000e+000
    H   2.435000e+001   7.198000e+000   8.100000e-001
    H   2.288000e+001   8.188000e+000   7.980000e-001
    H   2.369500e+001   5.961000e+000  -1.274000e+000
    H   2.218300e+001   6.847000e+000  -1.112000e+000
    H   2.448599e+001   8.977387e+000   8.443995e-001
    H   2.302369e+001   6.834071e+000  -2.686632e+000
=== === ===

sidechain-sidechain interaction