   15
pair.xyz   00
    C   2.129500e+001   1.272700e+001   2.448000e+000
    C   2.095200e+001   1.172000e+001  -1.711000e+000
    C   2.108800e+001   1.067600e+001  -7.490000e-001
    C   2.096900e+001   1.307100e+001  -1.292000e+000
    C   2.121900e+001   1.106600e+001   5.890000e-001
    C   2.109500e+001   1.344700e+001   5.800000e-002
    C   2.123900e+001   1.242500e+001   9.870000e-001
    H   2.083800e+001   1.148000e+001  -2.760000e+000
    H   2.106800e+001   9.633000e+000  -1.037000e+000
    H   2.086000e+001   1.384800e+001  -2.037000e+000
    H   2.130600e+001   1.029600e+001   1.344000e+000
    H   2.107600e+001   1.448600e+001   3.560000e-001
    H   2.163500e+001   1.375200e+001   2.602000e+000
    H   2.203800e+001   1.206700e+001   2.900000e+000
    H   2.032587e+001   1.258311e+001   2.948083e+000
=== === ===

sidechain-sidechain interaction