   08
pair.xyz   00
    C   8.587000e+000   1.496700e+001   9.326000e+000
    C   7.130000e+000   1.457300e+001   9.224000e+000
    H   9.202000e+000   1.409200e+001   9.546000e+000
    H   8.896000e+000   1.540800e+001   8.381000e+000
    H   8.735000e+000   1.570000e+001   1.011800e+001
    H   6.563000e+000   1.539100e+001   8.787000e+000
    H   6.781230e+000   1.439681e+001   1.025226e+001
    H   7.026180e+000   1.368404e+001   8.584495e+000
=== === ===

sidechain-sidechain interaction