   08
pair.xyz   00
    C   5.813000e+000   1.854100e+001   2.111500e+001
    C   4.448000e+000   1.823400e+001   2.053200e+001
    H   6.600000e+000   1.816400e+001   2.046200e+001
    H   5.923000e+000   1.961700e+001   2.124000e+001
    H   5.887000e+000   1.806500e+001   2.208200e+001
    H   3.694000e+000   1.867900e+001   2.117900e+001
    H   4.300253e+000   1.714526e+001   2.047893e+001
    H   4.369000e+000   1.867640e+001   1.952799e+001
=== === ===

sidechain-sidechain interaction