   15
pair.xyz   00
    C   9.711000e+000   9.732500e+001   2.570400e+001
    C   7.783000e+000   9.445100e+001   2.727600e+001
    C   8.595000e+000   9.518900e+001   2.641400e+001
    C   7.261000e+000   9.507700e+001   2.841400e+001
    C   8.897000e+000   9.653100e+001   2.667100e+001
    C   7.562000e+000   9.643800e+001   2.868000e+001
    C   8.390000e+000   9.715600e+001   2.780800e+001
    H   7.559000e+000   9.341400e+001   2.706800e+001
    H   9.001000e+000   9.472400e+001   2.552800e+001
    H   6.627000e+000   9.451400e+001   2.909000e+001
    H   7.157000e+000   9.693200e+001   2.955500e+001
    H   1.045100e+001   9.664900e+001   2.528400e+001
    H   1.021800e+001   9.809800e+001   2.628000e+001
    H   8.632000e+000   9.819000e+001   2.801100e+001
    H   9.122715e+000   9.774837e+001   2.487655e+001
=== === ===

sidechain-sidechain interaction