   11
pair.xyz   00
    C   1.057300e+001   2.092500e+001   1.266800e+001
    C   1.204600e+001   2.069900e+001   1.233700e+001
    C   1.036400e+001   2.212300e+001   1.361500e+001
    H   1.000800e+001   2.109900e+001   1.175400e+001
    H   1.016600e+001   2.003600e+001   1.314400e+001
    H   1.260000e+001   2.071800e+001   1.327700e+001
    H   9.313000e+000   2.217500e+001   1.390100e+001
    H   1.063000e+001   2.305500e+001   1.311700e+001
    H   1.096900e+001   2.200700e+001   1.451500e+001
    H   1.218337e+001   1.969376e+001   1.191201e+001
    H   1.244455e+001   2.150613e+001   1.170477e+001
=== === ===

backbone-sidechain interaction