   09
pair.xyz   00
    C   5.740000e-001   9.715000e+000   1.314800e+001
    C   9.100000e-002   9.535000e+000   1.172600e+001
    O  -9.660000e-001   1.003700e+001   1.134300e+001
    N   8.570000e-001   8.810000e+000   1.093100e+001
    H   5.360000e-001   8.615000e+000   9.996000e+000
    H   1.701000e+000   8.389000e+000   1.128700e+001
    H   1.664000e+000   9.769000e+000   1.316100e+001
    H   2.710000e-001   8.824000e+000   1.369900e+001
    H   1.575926e-001   1.061686e+001   1.362050e+001
=== === ===

sidechain-sidechain interaction