   12
pair.xyz   00
    C   2.523200e+001   3.641000e+001  -1.362100e+001
    C   2.377000e+001   3.354000e+001  -1.563600e+001
    C   2.507000e+001   3.537700e+001  -1.470300e+001
    O   2.586300e+001   3.534100e+001  -1.565300e+001
    N   2.403500e+001   3.455300e+001  -1.458800e+001
    H   2.465400e+001   3.612500e+001  -1.273900e+001
    H   2.340300e+001   3.462700e+001  -1.380300e+001
    H   2.403800e+001   3.392700e+001  -1.661600e+001
    H   2.630486e+001   3.649288e+001  -1.339272e+001
    H   2.489264e+001   3.738417e+001  -1.400287e+001
    H   2.435434e+001   3.262731e+001  -1.544748e+001
    H   2.269489e+001   3.330811e+001  -1.561710e+001
=== === ===

backbone-sidechain interaction