   12
pair.xyz   00
    C   2.050300e+001   2.628200e+001   2.923100e+001
    C   1.794400e+001   2.701300e+001   3.192500e+001
    C   1.923000e+001   2.684200e+001   2.987200e+001
    O   1.854400e+001   2.767700e+001   2.928900e+001
    N   1.893800e+001   2.637700e+001   3.107800e+001
    H   2.132800e+001   2.640900e+001   2.993500e+001
    H   1.955100e+001   2.568500e+001   3.149800e+001
    H   1.699100e+001   2.709300e+001   3.139900e+001
    H   2.041946e+001   2.523059e+001   2.891866e+001
    H   2.076067e+001   2.678935e+001   2.828961e+001
    H   1.781022e+001   2.641899e+001   3.284111e+001
    H   1.829397e+001   2.801353e+001   3.221906e+001
=== === ===

backbone-sidechain interaction