   18
pair.xyz   00
    C   2.027100e+001   2.475500e+001   2.734600e+001
    C   2.012800e+001   2.617000e+001   2.686100e+001
    C   2.050300e+001   2.628200e+001   2.923100e+001
    C   2.065100e+001   2.247900e+001   2.915600e+001
    C   2.056500e+001   2.390400e+001   2.970100e+001
    O   2.065800e+001   2.412000e+001   3.091900e+001
    N   2.039200e+001   2.488500e+001   2.881600e+001
    H   1.939800e+001   2.416500e+001   2.706900e+001
    H   2.118400e+001   2.432000e+001   2.693400e+001
    H   1.907800e+001   2.645400e+001   2.683800e+001
    H   2.058000e+001   2.630800e+001   2.587900e+001
    H   2.132800e+001   2.640900e+001   2.993500e+001
    H   2.094400e+001   2.248500e+001   2.810800e+001
    H   2.065272e+001   2.675294e+001   2.763226e+001
    H   2.076067e+001   2.678935e+001   2.828961e+001
    H   1.958857e+001   2.668426e+001   2.969145e+001
    H   2.142602e+001   2.192855e+001   2.970948e+001
    H   1.965738e+001   2.201706e+001   2.925260e+001
=== === ===

sidechain-sidechain interaction