   16
pair.xyz   00
    C   6.241000e+000   1.154000e+001   1.394300e+001
    C   6.803000e+000   1.026700e+001   1.334200e+001
    C   5.961000e+000   9.180000e+000   1.307500e+001
    C   8.165000e+000   1.014800e+001   1.303700e+001
    C   6.456000e+000   8.002000e+000   1.251900e+001
    C   8.673000e+000   8.962000e+000   1.248300e+001
    C   7.813000e+000   7.890000e+000   1.222300e+001
    O   8.279000e+000   6.724000e+000   1.168500e+001
    H   6.924000e+000   1.236600e+001   1.373700e+001
    H   6.182000e+000   1.143400e+001   1.502300e+001
    H   4.908000e+000   9.212000e+000   1.329800e+001
    H   8.829000e+000   1.098000e+001   1.322700e+001
    H   5.786000e+000   7.176000e+000   1.232100e+001
    H   9.723000e+000   8.862000e+000   1.225200e+001
    H   7.575000e+000   6.082000e+000   1.154400e+001
    H   5.252710e+000   1.178976e+001   1.352960e+001
=== === ===

sidechain-sidechain interaction