   08
pair.xyz   00
    C   2.432500e+001  -3.973000e+000   5.568300e+001
    C   2.355500e+001  -4.860000e+000   5.469400e+001
    H   2.396000e+001  -2.949000e+000   5.562700e+001
    H   2.418600e+001  -4.355000e+000   5.669300e+001
    H   2.538700e+001  -3.989000e+000   5.544600e+001
    H   2.395900e+001  -5.869000e+000   5.477300e+001
    H   2.366792e+001  -4.471287e+000   5.367118e+001
    H   2.248067e+001  -4.867894e+000   5.493011e+001
=== === ===

sidechain-sidechain interaction