   08
pair.xyz   00
    C   8.577000e+000   1.538500e+001   1.491200e+001
    C   8.375000e+000   1.523600e+001   1.641500e+001
    H   7.776000e+000   1.487400e+001   1.437800e+001
    H   8.571000e+000   1.644200e+001   1.464100e+001
    H   9.538000e+000   1.496500e+001   1.461800e+001
    H   9.250000e+000   1.563200e+001   1.692800e+001
    H   8.229382e+000   1.417794e+001   1.667826e+001
    H   7.503086e+000   1.581704e+001   1.674991e+001
=== === ===

sidechain-sidechain interaction