   09
pair.xyz   00
    C   1.570500e+001   1.113600e+001   6.940000e+000
    C   1.657500e+001   9.301000e+000   8.799000e+000
    S   1.514400e+001   1.034200e+001   8.453000e+000
    H   1.487800e+001   1.167400e+001   6.480000e+000
    H   1.606600e+001   1.038700e+001   6.238000e+000
    H   1.651400e+001   1.183100e+001   7.167000e+000
    H   1.743300e+001   9.926000e+000   9.049000e+000
    H   1.680900e+001   8.712000e+000   7.913000e+000
    H   1.633838e+001   8.635021e+000   9.641902e+000
=== === ===

sidechain-sidechain interaction