   08
pair.xyz   00
    C   2.094300e+001   5.017200e+001   1.067200e+001
    C   2.053800e+001   4.953100e+001   1.200100e+001
    H   2.007900e+001   5.058700e+001   1.015600e+001
    H   2.165600e+001   5.097600e+001   1.085700e+001
    H   2.140900e+001   4.942600e+001   1.002700e+001
    H   2.015100e+001   5.031800e+001   1.265000e+001
    H   1.973309e+001   4.880339e+001   1.182016e+001
    H   2.140282e+001   4.908478e+001   1.251380e+001
=== === ===

backbone-sidechain interaction