   08
pair.xyz   00
    C   2.152900e+001  -2.607000e+000   2.951800e+001
    C   2.081500e+001  -1.311000e+000   2.988800e+001
    H   2.080300e+001  -3.407000e+000   2.937900e+001
    H   2.205900e+001  -2.473000e+000   2.857400e+001
    H   2.223900e+001  -2.887000e+000   3.029600e+001
    H   2.003800e+001  -1.130000e+000   2.914800e+001
    H   2.035938e+001  -1.347847e+000   3.088853e+001
    H   2.152544e+001  -4.732364e-001   2.982940e+001
=== === ===

sidechain-sidechain interaction