   08
pair.xyz   00
    C   1.290400e+001  -1.223900e+001   1.885600e+001
    C   1.285000e+001  -1.160300e+001   1.745900e+001
    H   1.210300e+001  -1.295200e+001   1.899900e+001
    H   1.386100e+001  -1.274200e+001   1.899600e+001
    H   1.279200e+001  -1.146300e+001   1.961300e+001
    H   1.317300e+001  -1.235000e+001   1.673700e+001
    H   1.182659e+001  -1.128443e+001   1.721170e+001
    H   1.355038e+001  -1.075664e+001   1.740291e+001
=== === ===

sidechain-sidechain interaction