   08
pair.xyz   00
    C   1.310600e+001   1.168000e+000   7.416000e+000
    C   1.374600e+001   1.664000e+000   6.109000e+000
    H   1.283900e+001   2.005000e+000   8.059000e+000
    H   1.379300e+001   5.040000e-001   7.943000e+000
    H   1.219200e+001   6.190000e-001   7.187000e+000
    H   1.308900e+001   2.406000e+000   5.658000e+000
    H   1.472785e+001   2.122627e+000   6.297762e+000
    H   1.385028e+001   8.326299e-001   5.396294e+000
=== === ===

sidechain-sidechain interaction