   06
pair.xyz   00
    C   4.061500e+001   2.709500e+001   3.573000e+000
    O   4.124300e+001   2.702200e+001   2.312000e+000
    H   4.078300e+001   2.756500e+001   1.651000e+000
    H   4.110300e+001   2.639600e+001   4.251000e+000
    H   3.956800e+001   2.680600e+001   3.459000e+000
    H   4.067625e+001   2.810887e+001   3.995267e+000
=== === ===

sidechain-sidechain interaction