   08
pair.xyz   00
    C   1.457000e+001   3.312900e+001  -2.698400e+001
    C   1.305800e+001   3.333000e+001  -2.672800e+001
    H   1.472200e+001   3.261900e+001  -2.793400e+001
    H   1.505900e+001   3.410000e+001  -2.702200e+001
    H   1.502500e+001   3.254700e+001  -2.618300e+001
    H   1.265300e+001   3.394000e+001  -2.753500e+001
    H   1.252577e+001   3.236786e+001  -2.669602e+001
    H   1.288929e+001   3.390546e+001  -2.580584e+001
=== === ===

sidechain-sidechain interaction