   11
pair.xyz   00
    C   2.910300e+001   4.823500e+001   3.769400e+001
    C   2.971400e+001   4.820500e+001   3.629100e+001
    C   2.783100e+001   4.907000e+001   3.780400e+001
    H   2.887900e+001   4.721700e+001   3.801500e+001
    H   2.984500e+001   4.865100e+001   3.837900e+001
    H   2.991700e+001   4.923000e+001   3.596200e+001
    H   2.801800e+001   5.005200e+001   3.737200e+001
    H   2.702300e+001   4.860600e+001   3.725800e+001
    H   2.904278e+001   4.770347e+001   3.557830e+001
    H   3.068006e+001   4.767997e+001   3.632359e+001
    H   2.753015e+001   4.917364e+001   3.885697e+001
=== === ===

backbone-sidechain interaction