   19
pair.xyz   00
    C   3.049300e+001   4.532800e+001   3.961000e+001
    C   3.336800e+001   4.434700e+001   4.189600e+001
    C   2.787900e+001   4.335200e+001   4.156100e+001
    C   2.923000e+001   4.501900e+001   4.039700e+001
    C   3.212700e+001   4.507200e+001   4.138500e+001
    O   2.843100e+001   4.591600e+001   4.066400e+001
    O   3.158000e+001   4.594000e+001   4.207100e+001
    N   3.167600e+001   4.470900e+001   4.018600e+001
    N   2.904600e+001   4.375400e+001   4.077700e+001
    H   3.062800e+001   4.641000e+001   3.956500e+001
    H   3.036600e+001   4.494600e+001   3.860400e+001
    H   3.219300e+001   4.401900e+001   3.964400e+001
    H   2.971100e+001   4.304600e+001   4.046800e+001
    H   3.342000e+001   4.451100e+001   4.297400e+001
    H   2.696800e+001   4.368200e+001   4.106000e+001
    H   3.329795e+001   4.326838e+001   4.169188e+001
    H   3.427605e+001   4.476538e+001   4.143730e+001
    H   2.786323e+001   4.225997e+001   4.169222e+001
    H   2.788766e+001   4.383001e+001   4.255167e+001
=== === ===

backbone-sidechain interaction