   15
pair.xyz   00
    C   3.159200e+001   2.530600e+001   2.948100e+001
    C   3.216000e+001   2.406100e+001   2.881600e+001
    C   3.188300e+001   2.542000e+001   3.094600e+001
    C   3.299700e+001   2.588900e+001   3.154200e+001
    C   3.153500e+001   2.546100e+001   3.311500e+001
    N   3.096100e+001   2.517700e+001   3.194300e+001
    N   3.277700e+001   2.587500e+001   3.290200e+001
    H   3.197100e+001   2.620100e+001   2.899000e+001
    H   3.051200e+001   2.532400e+001   2.938700e+001
    H   3.324000e+001   2.403100e+001   2.896600e+001
    H   3.369200e+001   2.644200e+001   3.095900e+001
    H   3.105500e+001   2.538400e+001   3.408400e+001
    H   3.338600e+001   2.621700e+001   3.364200e+001
    H   3.190987e+001   2.409716e+001   2.774543e+001
    H   3.170477e+001   2.316073e+001   2.925450e+001
=== === ===

sidechain-sidechain interaction