   08
pair.xyz   00
    C   1.045000e+001  -6.337000e+000  -2.089400e+001
    C   1.137400e+001  -5.141000e+000  -2.112200e+001
    H   1.103600e+001  -7.243000e+000  -2.075400e+001
    H   9.850000e+000  -6.175000e+000  -1.999900e+001
    H   9.784000e+000  -6.465000e+000  -2.174600e+001
    H   1.211300e+001  -5.140000e+000  -2.032000e+001
    H   1.189094e+001  -5.240521e+000  -2.208785e+001
    H   1.081494e+001  -4.196324e+000  -2.105104e+001
=== === ===

sidechain-sidechain interaction