   18
pair.xyz   00
    C   1.084200e+001   3.522500e+001  -3.039900e+001
    C   1.060400e+001   3.423700e+001  -3.152700e+001
    C   9.630000e+000   3.544700e+001  -2.955000e+001
    C   8.683000e+000   3.640100e+001  -2.994600e+001
    C   9.401000e+000   3.470200e+001  -2.840500e+001
    C   7.558000e+000   3.665500e+001  -2.918000e+001
    C   8.251000e+000   3.493300e+001  -2.763000e+001
    C   7.330000e+000   3.592500e+001  -2.802300e+001
    H   1.165000e+001   3.485800e+001  -2.976800e+001
    H   1.115700e+001   3.617800e+001  -3.082500e+001
    H   9.823000e+000   3.464100e+001  -3.217000e+001
    H   8.844000e+000   3.696700e+001  -3.085300e+001
    H   1.011100e+001   3.394600e+001  -2.810000e+001
    H   6.845000e+000   3.740500e+001  -2.949000e+001
    H   8.077000e+000   3.435700e+001  -2.673100e+001
    H   6.448000e+000   3.611200e+001  -2.742600e+001
    H   1.033830e+001   3.322963e+001  -3.117400e+001
    H   1.151598e+001   3.412418e+001  -3.213161e+001
=== === ===

sidechain-sidechain interaction