   12
pair.xyz   00
    C   4.652900e+001   3.988500e+001   2.297200e+001
    C   4.288600e+001   4.088600e+001   2.271800e+001
    C   4.505400e+001   3.980300e+001   2.262300e+001
    O   4.459600e+001   3.882500e+001   2.202400e+001
    N   4.430800e+001   4.083500e+001   2.300300e+001
    H   4.664000e+001   4.047200e+001   2.388600e+001
    H   4.473400e+001   4.160800e+001   2.349900e+001
    H   4.245000e+001   4.177200e+001   2.318100e+001
    H   4.274200e+001   4.096700e+001   2.163900e+001
    H   4.694457e+001   3.887963e+001   2.313491e+001
    H   4.706830e+001   4.040848e+001   2.216880e+001
    H   4.235105e+001   4.000286e+001   2.309732e+001
=== === ===

backbone-sidechain interaction