   16
pair.xyz   00
    C   4.586300e+001   2.345200e+001  -4.407000e+000
    C   4.678600e+001   2.577800e+001  -4.807000e+000
    C   4.647400e+001   2.450800e+001  -5.301000e+000
    C   4.733400e+001   2.675500e+001  -5.647000e+000
    C   4.672000e+001   2.422800e+001  -6.650000e+000
    C   4.757100e+001   2.646200e+001  -6.992000e+000
    C   4.726300e+001   2.519700e+001  -7.495000e+000
    O   4.809600e+001   2.741100e+001  -7.820000e+000
    H   4.660200e+001   2.601200e+001  -3.766000e+000
    H   4.757600e+001   2.773600e+001  -5.263000e+000
    H   4.574200e+001   2.384300e+001  -3.395000e+000
    H   4.655900e+001   2.261400e+001  -4.359000e+000
    H   4.650000e+001   2.324600e+001  -7.049000e+000
    H   4.744800e+001   2.496500e+001  -8.535000e+000
    H   4.822000e+001   2.707800e+001  -8.717000e+000
    H   4.489305e+001   2.308800e+001  -4.776743e+000
=== === ===

backbone-sidechain interaction