   15
pair.xyz   00
    C   3.228100e+001   3.194700e+001   7.760000e+000
    C   3.129500e+001   3.109200e+001   5.594000e+000
    C   3.154200e+001   3.091500e+001   6.943000e+000
    C   3.050700e+001   3.016100e+001   4.902000e+000
    C   3.103600e+001   2.980000e+001   7.567000e+000
    C   3.001500e+001   2.905800e+001   5.552000e+000
    C   3.029700e+001   2.885500e+001   6.882000e+000
    H   3.168000e+001   3.195800e+001   5.084000e+000
    H   3.026500e+001   3.029000e+001   3.862000e+000
    H   3.190400e+001   3.191400e+001   8.784000e+000
    H   3.206000e+001   3.294200e+001   7.369000e+000
    H   3.122400e+001   2.964800e+001   8.621000e+000
    H   2.940800e+001   2.834400e+001   5.014000e+000
    H   2.992500e+001   2.797800e+001   7.388000e+000
    H   3.337002e+001   3.179348e+001   7.781622e+000
=== === ===

sidechain-sidechain interaction