   08
pair.xyz   00
    C   2.907200e+001   3.399900e+001   4.916000e+000
    C   3.001600e+001   3.505900e+001   4.295000e+000
    H   2.803800e+001   3.418300e+001   4.633000e+000
    H   2.934700e+001   3.301300e+001   4.543000e+000
    H   2.916400e+001   3.400400e+001   6.002000e+000
    H   2.984900e+001   3.510800e+001   3.219000e+000
    H   2.984363e+001   3.603838e+001   4.765218e+000
    H   3.108277e+001   3.485556e+001   4.469999e+000
=== === ===

sidechain-sidechain interaction