   08
pair.xyz   00
    C   1.237000e+001  -1.699000e+000   1.781600e+001
    C   1.112700e+001  -8.810000e-001   1.745100e+001
    H   1.296400e+001  -1.158000e+000   1.855200e+001
    H   1.297400e+001  -1.863000e+000   1.692300e+001
    H   1.207500e+001  -2.667000e+000   1.822600e+001
    H   1.145800e+001   9.700000e-002   1.710100e+001
    H   1.050984e+001  -7.363178e-001   1.834999e+001
    H   1.058948e+001  -1.360803e+000   1.661982e+001
=== === ===

sidechain-sidechain interaction