   12
pair.xyz   00
    C   2.620200e+001   3.580500e+001   1.028000e+001
    C   2.501100e+001   3.507900e+001   6.744000e+000
    C   2.609900e+001   3.576800e+001   8.760000e+000
    O   2.694600e+001   3.636900e+001   8.096000e+000
    N   2.508100e+001   3.514000e+001   8.187000e+000
    H   2.605300e+001   3.685400e+001   1.051700e+001
    H   2.438000e+001   3.465600e+001   8.735000e+000
    H   2.506400e+001   3.608000e+001   6.316000e+000
    H   2.584100e+001   3.448800e+001   6.356000e+000
    H   2.544924e+001   3.519882e+001   1.080525e+001
    H   2.721990e+001   3.552867e+001   1.059228e+001
    H   2.406266e+001   3.461357e+001   6.437356e+000
=== === ===

backbone-sidechain interaction