   08
pair.xyz   00
    C   9.300000e-001   9.018900e+001   3.784500e+001
    C  -7.100000e-002   8.948500e+001   3.694300e+001
    H   4.360000e-001   9.101400e+001   3.835800e+001
    H   1.315000e+000   8.948600e+001   3.858400e+001
    H   1.754000e+000   9.057400e+001   3.724600e+001
    H  -8.810000e-001   8.914700e+001   3.758900e+001
    H  -4.782288e-001   9.017405e+001   3.618843e+001
    H   3.995401e-001   8.860795e+001   3.647462e+001
=== === ===

sidechain-sidechain interaction