   16
pair.xyz   00
    C   8.548000e+000  -1.836900e+001  -5.448000e+000
    C   8.297000e+000  -1.613100e+001  -4.257000e+000
    C   8.901000e+000  -1.739200e+001  -4.348000e+000
    C   8.663000e+000  -1.523800e+001  -3.247000e+000
    C   9.881000e+000  -1.773800e+001  -3.411000e+000
    C   9.650000e+000  -1.559600e+001  -2.324000e+000
    C   1.026300e+001  -1.684900e+001  -2.412000e+000
    O   1.002100e+001  -1.470600e+001  -1.354000e+000
    H   7.556000e+000  -1.582100e+001  -4.970000e+000
    H   8.181000e+000  -1.427900e+001  -3.159000e+000
    H   8.942000e+000  -1.936000e+001  -5.211000e+000
    H   9.083000e+000  -1.802200e+001  -6.334000e+000
    H   1.036000e+001  -1.870800e+001  -3.467000e+000
    H   1.102300e+001  -1.713300e+001  -1.697000e+000
    H   1.069800e+001  -1.506000e+001  -7.720000e-001
    H   7.478505e+000  -1.845144e+001  -5.691691e+000
=== === ===

backbone-sidechain interaction