   11
pair.xyz   00
    C   2.385400e+001   4.555000e+001   5.519100e+001
    C   2.484400e+001   4.487100e+001   5.613900e+001
    C   2.251500e+001   4.596300e+001   5.578600e+001
    H   2.432700e+001   4.644900e+001   5.479100e+001
    H   2.365900e+001   4.486500e+001   5.436500e+001
    H   2.441200e+001   4.393000e+001   5.648500e+001
    H   2.196900e+001   4.509500e+001   5.613400e+001
    H   2.267500e+001   4.665300e+001   5.661400e+001
    H   2.508451e+001   4.552640e+001   5.698906e+001
    H   2.575743e+001   4.463939e+001   5.557155e+001
    H   2.191749e+001   4.646261e+001   5.500923e+001
=== === ===

sidechain-sidechain interaction