   08
pair.xyz   00
    C   1.790800e+001  -2.159300e+001   6.320000e-001
    C   1.908200e+001  -2.187800e+001  -2.980000e-001
    H   1.753800e+001  -2.057700e+001   4.760000e-001
    H   1.709800e+001  -2.228800e+001   4.150000e-001
    H   1.819700e+001  -2.172300e+001   1.676000e+000
    H   1.954300e+001  -2.281700e+001   6.000000e-003
    H   1.982846e+001  -2.107477e+001  -2.107234e-001
    H   1.874386e+001  -2.198215e+001  -1.339545e+000
=== === ===

sidechain-sidechain interaction