   08
pair.xyz   00
    C   1.398300e+001   8.912000e+000   1.912800e+001
    C   1.420800e+001   9.508000e+000   1.774700e+001
    H   1.319900e+001   9.433000e+000   1.967200e+001
    H   1.368700e+001   7.872000e+000   1.901300e+001
    H   1.490800e+001   8.972000e+000   1.970300e+001
    H   1.332700e+001   9.305000e+000   1.713800e+001
    H   1.436204e+001   1.059487e+001   1.781760e+001
    H   1.508278e+001   9.033920e+000   1.727796e+001
=== === ===

backbone-sidechain interaction