   22
pair.xyz   00
    C   2.581200e+001   1.808000e+000   5.624500e+001
    C   2.241600e+001   4.280000e-001   5.699600e+001
    C   2.853700e+001   2.454000e+000   5.557500e+001
    C   2.855700e+001   4.212000e+000   5.729300e+001
    C   2.650400e+001   2.937000e+000   5.698100e+001
    C   2.369300e+001   6.780000e-001   5.623500e+001
    O   2.592500e+001   3.562000e+000   5.787700e+001
    O   2.398100e+001   2.700000e-002   5.523500e+001
    N   2.448100e+001   1.605000e+000   5.675800e+001
    N   2.776200e+001   3.184000e+000   5.659400e+001
    H   2.639000e+001   8.920000e-001   5.637100e+001
    H   2.576700e+001   2.055000e+000   5.518400e+001
    H   2.419300e+001   2.100000e+000   5.759800e+001
    H   2.210700e+001   1.349000e+000   5.748100e+001
    H   2.818000e+001   2.713000e+000   5.457600e+001
    H   2.850900e+001   1.377000e+000   5.573900e+001
    H   2.880400e+001   3.862000e+000   5.829400e+001
    H   2.162751e+001   1.304286e-001   5.628908e+001
    H   2.257631e+001  -3.604956e-001   5.774605e+001
    H   2.955691e+001   2.836922e+000   5.572715e+001
    H   2.947543e+001   4.285214e+000   5.669207e+001
    H   2.810254e+001   5.213124e+000   5.732785e+001
=== === ===

backbone-sidechain interaction