   16
pair.xyz   00
    C   4.374700e+001   3.238700e+001   2.513100e+001
    C   4.055100e+001   2.950900e+001   2.461700e+001
    C   4.182100e+001   2.907500e+001   2.501700e+001
    C   4.032100e+001   3.086600e+001   2.438300e+001
    C   4.285400e+001   3.000700e+001   2.517900e+001
    C   4.135900e+001   3.178800e+001   2.454100e+001
    C   4.263400e+001   3.137200e+001   2.494100e+001
    O   3.953800e+001   2.861200e+001   2.443800e+001
    H   3.984900e+001   2.770400e+001   2.452400e+001
    H     42   2.802600e+001   2.520300e+001
    H   3.934000e+001   3.118800e+001   2.406300e+001
    H   4.382900e+001   2.966900e+001   2.550800e+001
    H   4.117600e+001   3.283500e+001   2.433500e+001
    H   4.437600e+001   3.203200e+001   2.594600e+001
    H   4.332500e+001   3.334300e+001   2.544400e+001
    H   4.440114e+001   3.253889e+001   2.425977e+001
=== === ===

backbone-sidechain interaction