   12
pair.xyz   00
    C   3.479100e+001   3.019300e+001   2.493100e+001
    C   3.699900e+001   2.753500e+001   2.639500e+001
    C   3.603200e+001   2.943300e+001   2.534100e+001
    O   3.713800e+001   2.997600e+001   2.527000e+001
    N   3.586800e+001   2.820200e+001   2.579400e+001
    H   3.394700e+001   2.950700e+001   2.486500e+001
    H   3.496000e+001   2.775000e+001   2.578400e+001
    H   3.788600e+001   2.816500e+001   2.637600e+001
    H   3.460111e+001   3.094425e+001   2.571175e+001
    H   3.495074e+001   3.068518e+001   2.396031e+001
    H   3.677689e+001   2.735111e+001   2.745653e+001
    H   3.729442e+001   2.659184e+001   2.591211e+001
=== === ===

backbone-sidechain interaction