   08
pair.xyz   00
    C   1.466400e+001   3.561800e+001  -2.964400e+001
    C   1.395700e+001   3.694200e+001  -2.940700e+001
    H   1.537700e+001   3.541700e+001  -2.884800e+001
    H   1.393700e+001   3.480800e+001  -2.968000e+001
    H   1.519900e+001   3.565000e+001  -3.059300e+001
    H   1.333700e+001   3.687100e+001  -2.851300e+001
    H   1.330400e+001   3.711600e+001  -3.026000e+001
    H   1.468543e+001   3.775713e+001  -2.928477e+001
=== === ===

sidechain-sidechain interaction