   15
pair.xyz   00
    C   2.100700e+001   3.929200e+001   1.020800e+001
    C   2.215600e+001   3.723300e+001   7.232000e+000
    C   2.133800e+001   3.794100e+001   8.129000e+000
    C   2.354500e+001   3.718000e+001   7.470000e+000
    C   2.189500e+001   3.860400e+001   9.229000e+000
    C   2.409000e+001   3.783500e+001   8.577000e+000
    C   2.326900e+001   3.852300e+001   9.465000e+000
    H   2.172600e+001   3.672600e+001   6.378000e+000
    H   2.027300e+001   3.796600e+001   7.958000e+000
    H   2.418900e+001   3.663600e+001   6.792000e+000
    H   2.515700e+001   3.779000e+001   8.755000e+000
    H   2.035700e+001   3.996000e+001   9.641000e+000
    H   2.159200e+001   3.990000e+001   1.090100e+001
    H   2.370200e+001   3.900400e+001   1.033100e+001
    H   2.038840e+001   3.857735e+001   1.077069e+001
=== === ===

sidechain-sidechain interaction