   11
pair.xyz   00
    C  -6.417000e+000   2.084000e+000   1.804600e+001
    C  -5.529000e+000   2.716000e+000   1.701800e+001
    C  -7.155000e+000   2.966000e+000   1.900400e+001
    H  -7.147000e+000   1.463000e+000   1.752800e+001
    H  -5.740000e+000   1.413000e+000   1.857100e+001
    H  -5.205000e+000   1.888000e+000   1.638400e+001
    H  -6.547000e+000   3.828000e+000   1.918000e+001
    H  -8.092000e+000   3.290000e+000   1.854900e+001
    H  -4.633159e+000   3.175540e+000   1.746105e+001
    H  -6.043675e+000   3.420675e+000   1.634827e+001
    H  -7.362537e+000   2.503032e+000   1.998001e+001
=== === ===

sidechain-sidechain interaction