   08
pair.xyz   00
    C   2.288700e+001   3.183100e+001   6.390000e+000
    C   2.278200e+001   3.050100e+001   7.119000e+000
    H   2.373500e+001   3.181700e+001   5.705000e+000
    H   2.197300e+001   3.201500e+001   5.827000e+000
    H   2.302100e+001   3.263700e+001   7.111000e+000
    H   2.190400e+001   3.054600e+001   7.762000e+000
    H   2.368758e+001   3.035091e+001   7.725128e+000
    H   2.264712e+001   2.967585e+001   6.404205e+000
=== === ===

sidechain-sidechain interaction