   19
pair.xyz   00
    C   4.709000e+001   2.044200e+001   2.815900e+001
    C   4.538900e+001   2.023900e+001   2.614600e+001
    C   4.611300e+001   1.970900e+001   2.727800e+001
    C   4.447000e+001   1.923700e+001   2.572000e+001
    C   4.563200e+001   1.845200e+001   2.747200e+001
    C   4.453100e+001   2.165500e+001   2.437500e+001
    C   4.363500e+001   2.064100e+001   2.397800e+001
    C   4.541000e+001   2.146400e+001   2.545600e+001
    C   4.359600e+001   1.942400e+001   2.464500e+001
    N   4.465100e+001   1.816300e+001   2.655200e+001
    H   4.454100e+001   2.259300e+001   2.384000e+001
    H   4.296700e+001   2.081500e+001   2.314200e+001
    H   4.609700e+001   2.224100e+001   2.575200e+001
    H   4.291000e+001   1.864400e+001   2.435000e+001
    H   4.705400e+001   2.001400e+001   2.914600e+001
    H   4.675500e+001   2.147600e+001   2.825900e+001
    H   4.591000e+001   1.782200e+001   2.830400e+001
    H   4.410400e+001   1.730300e+001   2.656300e+001
    H   4.814388e+001   2.043841e+001   2.784384e+001
=== === ===

backbone-sidechain interaction