   11
pair.xyz   00
    C   1.839500e+001   4.466900e+001   4.831300e+001
    C   1.892900e+001   4.332700e+001   4.780800e+001
    C   1.940600e+001   4.538900e+001   4.919900e+001
    H   1.819200e+001   4.530700e+001   4.745900e+001
    H   1.745600e+001   4.454700e+001   4.883400e+001
    H   1.899700e+001   4.262500e+001   4.864000e+001
    H   1.993800e+001   4.348400e+001   4.742200e+001
    H   2.039100e+001   4.535100e+001   4.872900e+001
    H   1.912200e+001   4.644100e+001   4.925600e+001
    H   1.831741e+001   4.290326e+001   4.699781e+001
    H   1.946818e+001   4.497545e+001   5.021640e+001
=== === ===

backbone-sidechain interaction