   19
pair.xyz   00
    C   9.847000e+000   5.185000e+000   2.301600e+001
    C   1.046700e+001   3.701000e+000   2.643200e+001
    C   7.879000e+000   3.977000e+000   2.003400e+001
    C   8.884000e+000   4.356000e+000   2.218800e+001
    C   9.964000e+000   4.673000e+000   2.538500e+001
    O   8.351000e+000   3.333000e+000   2.264200e+001
    O   9.204000e+000   5.594000e+000   2.569100e+001
    N   1.037400e+001   4.453000e+000   2.414500e+001
    N   8.654000e+000   4.793000e+000   2.095300e+001
    H   9.330000e+000   6.090000e+000   2.332600e+001
    H   1.066500e+001   5.461000e+000   2.236000e+001
    H   1.097900e+001   3.661000e+000   2.396100e+001
    H   9.136000e+000   5.620000e+000   2.061100e+001
    H   1.131100e+001   3.132000e+000   2.603700e+001
    H   6.866000e+000   3.884000e+000   2.042200e+001
    H   1.077757e+001   4.239570e+000   2.733946e+001
    H   9.652729e+000   3.012662e+000   2.670247e+001
    H   7.828813e+000   4.459512e+000   1.904675e+001
    H   8.365734e+000   2.992795e+000   1.996743e+001
=== === ===

backbone-sidechain interaction