   22
pair.xyz   00
    C   1.443700e+001   5.622000e+000   3.128100e+001
    C   1.506900e+001   6.852000e+000   3.196700e+001
    C   1.438800e+001   5.369000e+000   2.747600e+001
    C   1.148000e+001   3.784000e+000   3.278800e+001
    C   1.305200e+001   5.380000e+000   3.180900e+001
    C   1.448100e+001   4.917000e+000   2.891700e+001
    O   1.217500e+001   6.253000e+000   3.171400e+001
    O   1.468200e+001   3.734000e+000   2.920000e+001
    N   1.435300e+001   5.877000e+000   2.983500e+001
    N   1.282800e+001   4.200000e+000   3.237000e+001
    H   1.507000e+001   4.759000e+000   3.146900e+001
    H   1.414400e+001   6.818000e+000   2.952100e+001
    H   1.448600e+001   7.741000e+000   3.172800e+001
    H   1.513100e+001   6.789000e+000   3.302400e+001
    H   1.358400e+001   3.524000e+000   3.243100e+001
    H   1.410900e+001   6.420000e+000   2.745700e+001
    H   1.082900e+001   4.648000e+000   3.287800e+001
    H   1.611899e+001   7.014212e+000   3.168203e+001
    H   1.537114e+001   5.218682e+000   2.700607e+001
    H   1.361024e+001   4.811088e+000   2.693395e+001
    H   1.106357e+001   3.131571e+000   3.200638e+001
    H   1.149959e+001   3.263049e+000   3.375662e+001
=== === ===

backbone-sidechain interaction