   15
pair.xyz   00
    C   1.506900e+001   6.852000e+000   3.196700e+001
    C   1.754000e+001   6.573000e+000   3.238200e+001
    C   1.650600e+001   7.074000e+000   3.157700e+001
    C   1.887900e+001   6.753000e+000   3.202800e+001
    C   1.684600e+001   7.773000e+000   3.041300e+001
    C   1.921500e+001   7.439000e+000   3.086300e+001
    C   1.818300e+001   7.962000e+000   3.007800e+001
    H   1.730600e+001   6.028000e+000   3.327200e+001
    H   1.966000e+001   6.346000e+000   3.265400e+001
    H   1.448600e+001   7.741000e+000   3.172800e+001
    H   1.513100e+001   6.789000e+000   3.302400e+001
    H   1.607300e+001   8.178000e+000   2.977500e+001
    H   2.024900e+001   7.569000e+000   3.057500e+001
    H   1.843500e+001   8.504000e+000   2.917800e+001
    H   1.461864e+001   5.975518e+000   3.147817e+001
=== === ===

sidechain-sidechain interaction