   19
pair.xyz   00
    C   1.910600e+001   6.923000e+000   3.670200e+001
    C   1.615900e+001   5.148000e+000   3.535900e+001
    C   1.670500e+001   6.314000e+000   3.598100e+001
    C   1.810100e+001   6.034000e+000   3.611000e+001
    C   1.830500e+001   4.816000e+000   3.556200e+001
    C   1.425000e+001   5.979000e+000   3.512600e+001
    C   1.486800e+001   4.854000e+000   3.500200e+001
    C   1.462800e+001   7.236000e+000   3.580500e+001
    C   1.585100e+001   7.368000e+000   3.629500e+001
    N   1.717200e+001   4.286000e+000   3.514200e+001
    H   1.383500e+001   5.990000e+000   3.414800e+001
    H   1.455600e+001   4.005000e+000   3.442700e+001
    H   1.411100e+001   8.128000e+000   3.558100e+001
    H   1.621500e+001   8.299000e+000   3.670500e+001
    H   1.710400e+001   3.415000e+000   3.463400e+001
    H   1.924900e+001   4.483000e+000   3.521200e+001
    H   1.951900e+001   6.457000e+000   3.759800e+001
    H   1.859800e+001   7.840000e+000   3.700300e+001
    H   1.990876e+001   7.159495e+000   3.598811e+001
=== === ===

backbone-sidechain interaction