   18
pair.xyz   00
    C   2.764600e+001   3.541300e+001   1.072300e+001
    C   2.620200e+001   3.580500e+001   1.028000e+001
    C   2.802700e+001   3.400100e+001   1.036100e+001
    C   2.870800e+001   3.375100e+001   9.196000e+000
    C   2.761400e+001   3.290700e+001   1.110400e+001
    C   2.901200e+001   3.245800e+001   8.766000e+000
    C   2.795000e+001   3.161100e+001   1.071600e+001
    C   2.865900e+001   3.135800e+001   9.538000e+000
    H   2.836400e+001   3.610900e+001   1.028400e+001
    H   2.772000e+001   3.552700e+001   1.180500e+001
    H   2.605300e+001   3.685400e+001   1.051700e+001
    H   2.900200e+001   3.458100e+001   8.569000e+000
    H   2.706300e+001   3.306100e+001   1.201600e+001
    H   2.951400e+001   3.231400e+001   7.824000e+000
    H   2.766400e+001   3.077500e+001   1.133200e+001
    H   2.889700e+001   3.034900e+001   9.232000e+000
    H   2.544924e+001   3.519882e+001   1.080525e+001
    H   2.612765e+001   3.577829e+001   9.182840e+000
=== === ===

sidechain-sidechain interaction