   08
pair.xyz   00
    C   1.552200e+001  -1.764300e+001  -9.250000e-001
    C   1.435200e+001  -1.692200e+001  -1.563000e+000
    H   1.546900e+001  -1.757400e+001   1.600000e-001
    H   1.548400e+001  -1.870200e+001  -1.187000e+000
    H   1.646900e+001  -1.722400e+001  -1.271000e+000
    H   1.343700e+001  -1.725600e+001  -1.078000e+000
    H   1.449928e+001  -1.584408e+001  -1.400553e+000
    H   1.428662e+001  -1.713251e+001  -2.640688e+000
=== === ===

sidechain-sidechain interaction