   08
pair.xyz   00
    C   1.426100e+001  -1.721500e+001  -3.063000e+000
    C   1.435200e+001  -1.692200e+001  -1.563000e+000
    H   1.514500e+001  -1.683500e+001  -3.578000e+000
    H   1.420600e+001  -1.829300e+001  -3.212000e+000
    H   1.336200e+001  -1.677300e+001  -3.497000e+000
    H   1.343700e+001  -1.725600e+001  -1.078000e+000
    H   1.449928e+001  -1.584408e+001  -1.400553e+000
    H   1.520140e+001  -1.744543e+001  -1.099822e+000
=== === ===

sidechain-sidechain interaction