   15
pair.xyz   00
    C   2.167700e+001  -1.786200e+001  -6.003000e+000
    C   1.805600e+001  -1.837000e+001  -3.735000e+000
    C   1.923900e+001  -1.819900e+001  -3.080000e+000
    C   1.801500e+001  -1.834300e+001  -5.119000e+000
    C   2.041400e+001  -1.799700e+001  -3.814000e+000
    C   1.918700e+001  -1.814700e+001  -5.848000e+000
    C   2.040000e+001  -1.798200e+001  -5.205000e+000
    H   1.714700e+001  -1.853300e+001  -3.175000e+000
    H   1.926400e+001  -1.819000e+001     -2
    H   1.707700e+001  -1.848700e+001  -5.636000e+000
    H   2.134100e+001  -1.783300e+001  -3.282000e+000
    H   1.913400e+001  -1.817400e+001  -6.926000e+000
    H   2.165700e+001  -1.862400e+001  -6.784000e+000
    H   2.251500e+001  -1.811400e+001  -5.358000e+000
    H   2.186976e+001  -1.688469e+001  -6.469603e+000
=== === ===

sidechain-sidechain interaction