   12
pair.xyz   00
    C   2.574700e+001   2.614500e+001   2.232800e+001
    C   2.509900e+001   2.457100e+001   2.033500e+001
    C   2.595000e+001   2.510200e+001   2.125700e+001
    C   2.708700e+001   2.367300e+001   2.002400e+001
    N   2.584000e+001   2.370400e+001   1.957100e+001
    N   2.719100e+001   2.452900e+001   2.104200e+001
    H   2.406400e+001   2.481800e+001   2.017800e+001
    H   2.557900e+001   2.350800e+001   1.862000e+001
    H   2.632500e+001   2.702200e+001   2.203300e+001
    H   2.616800e+001   2.577100e+001   2.325800e+001
    H   2.792100e+001   2.315600e+001   1.956300e+001
    H   2.470623e+001   2.645485e+001   2.250351e+001
=== === ===

sidechain-sidechain interaction