   09
pair.xyz   00
    C   2.681500e+001   2.712200e+001   1.837700e+001
    C   2.428500e+001   2.746200e+001   1.728900e+001
    S   2.603300e+001   2.779500e+001   1.691100e+001
    H   2.658900e+001   2.606000e+001   1.845600e+001
    H   2.789500e+001   2.724600e+001   1.830000e+001
    H   2.646500e+001   2.764300e+001   1.926800e+001
    H   2.416900e+001   2.639900e+001   1.750600e+001
    H   2.370300e+001   2.769400e+001   1.639500e+001
    H   2.389709e+001   2.805961e+001   1.812709e+001
=== === ===

sidechain-sidechain interaction