   12
pair.xyz   00
    C   1.112700e+001  -8.810000e-001   1.745100e+001
    C   8.700000e+000  -3.085000e+000   1.551800e+001
    C   1.038200e+001  -1.546000e+000   1.629900e+001
    O   1.072800e+001  -1.286000e+000   1.514200e+001
    N   9.407000e+000  -2.410000e+000   1.658900e+001
    H   1.145800e+001   9.700000e-002   1.710100e+001
    H   9.203000e+000  -2.645000e+000   1.755900e+001
    H   9.405000e+000  -3.669000e+000   1.492400e+001
    H   1.050984e+001  -7.363178e-001   1.834999e+001
    H   1.201942e+001  -1.468290e+000   1.771305e+001
    H   7.930119e+000  -3.758646e+000   1.592233e+001
    H   8.195153e+000  -2.368606e+000   1.485324e+001
=== === ===

backbone-sidechain interaction