   16
pair.xyz   00
    C   4.025700e+001   3.402400e+001   1.649100e+001
    C   3.752800e+001   3.527200e+001   1.413000e+001
    C   3.826000e+001   3.619000e+001   1.335100e+001
    C   3.822400e+001   3.449400e+001   1.506300e+001
    C   3.955900e+001   3.476100e+001   1.538700e+001
    C   3.960900e+001   3.643800e+001   1.370000e+001
    C   4.024100e+001   3.574700e+001   1.471600e+001
    O   3.767800e+001   3.695000e+001   1.237900e+001
    H   3.647500e+001   3.512400e+001   1.395300e+001
    H   3.769100e+001   3.372800e+001   1.560800e+001
    H   4.016300e+001   3.719200e+001   1.315900e+001
    H   3.829900e+001   3.757300e+001   1.199000e+001
    H   3.952300e+001   3.340200e+001   1.700600e+001
    H   4.062700e+001   3.475300e+001   1.721300e+001
    H   4.127100e+001   3.597000e+001   1.496500e+001
    H   4.109237e+001   3.338290e+001   1.617297e+001
=== === ===

sidechain-sidechain interaction