   09
pair.xyz   00
    C   3.779200e+001   3.026000e+001   1.516800e+001
    C   3.837000e+001   2.920800e+001   1.424100e+001
    O   3.882300e+001   3.078100e+001   1.604300e+001
    H   3.738500e+001   3.108700e+001   1.458900e+001
    H   3.698700e+001   2.981600e+001   1.575400e+001
    H   3.769300e+001   2.912200e+001   1.339000e+001
    H   3.929000e+001   3.004700e+001   1.649100e+001
    H   3.847242e+001   2.822825e+001   1.473050e+001
    H   3.935758e+001   2.951159e+001   1.386348e+001
=== === ===

sidechain-sidechain interaction