   11
pair.xyz   00
    C   1.216300e+001   1.293000e+000   1.366400e+001
    C   1.159100e+001   6.870000e-001   1.237600e+001
    C   1.352300e+001   7.390000e-001   1.409700e+001
    H   1.223400e+001   2.376000e+000   1.356200e+001
    H   1.146600e+001   1.080000e+000   1.446900e+001
    H   1.157300e+001  -3.990000e-001   1.247600e+001
    H   1.377500e+001   1.138000e+000   1.508000e+001
    H   1.430000e+001   1.037000e+000   1.339600e+001
    H   1.348000e+001  -3.490000e-001   1.415700e+001
    H   1.055922e+001   1.053347e+000   1.227010e+001
    H   1.221928e+001   9.337238e-001   1.150745e+001
=== === ===

backbone-sidechain interaction