   12
pair.xyz   00
    C   1.765800e+001   4.611900e+001  -1.451900e+001
    C   1.650500e+001   4.547900e+001  -1.230400e+001
    C   1.724300e+001   4.629500e+001  -1.309100e+001
    C   1.713400e+001   4.721300e+001  -1.107300e+001
    N   1.639400e+001   4.611100e+001  -1.107400e+001
    N   1.768000e+001   4.733500e+001  -1.227300e+001
    H   1.605700e+001   4.454000e+001  -1.259400e+001
    H   1.586700e+001   4.576800e+001  -1.027800e+001
    H   1.756300e+001   4.706900e+001  -1.504700e+001
    H   1.697800e+001   4.540400e+001  -1.498300e+001
    H   1.728700e+001   4.788100e+001  -1.023200e+001
    H   1.868808e+001   4.574274e+001  -1.460484e+001
=== === ===

sidechain-sidechain interaction