   12
pair.xyz   00
    C   2.405600e+001   2.126700e+001   1.759600e+001
    C   2.273800e+001   2.171600e+001   1.700400e+001
    C   2.462200e+001   2.006900e+001   1.685400e+001
    O   2.501700e+001   2.230000e+001   1.749000e+001
    H   2.391100e+001   2.101300e+001   1.864500e+001
    H   2.292100e+001   2.204900e+001   1.598700e+001
    H   2.472000e+001   2.029300e+001   1.579000e+001
    H   2.560000e+001   1.981100e+001   1.726000e+001
    H   2.397500e+001   1.920100e+001   1.697900e+001
    H   2.552800e+001   2.212200e+001   1.829600e+001
    H   2.231643e+001   2.253189e+001   1.760948e+001
    H   2.199434e+001   2.090579e+001   1.698085e+001
=== === ===

sidechain-sidechain interaction