   08
pair.xyz   00
    C  -1.071000e+000  -1.176500e+001  -1.641800e+001
    C   1.420000e-001  -1.238200e+001  -1.691700e+001
    H  -8.740000e-001  -1.073900e+001  -1.611000e+001
    H  -1.803000e+000  -1.174800e+001  -1.722500e+001
    H  -1.491000e+000  -1.237100e+001  -1.561500e+001
    H  -7.700000e-002  -1.336000e+001  -1.734700e+001
    H   8.726108e-001  -1.248189e+001  -1.610077e+001
    H   4.766506e-001  -1.168468e+001  -1.769915e+001
=== === ===

sidechain-sidechain interaction