   11
pair.xyz   00
    C  -3.229000e+000  -1.033600e+001  -1.420600e+001
    C  -2.604000e+000  -1.056500e+001  -1.283000e+001
    C  -4.611000e+000  -1.095900e+001  -1.435200e+001
    H  -3.326000e+000  -9.258000e+000  -1.434700e+001
    H  -2.604000e+000  -1.069400e+001  -1.497800e+001
    H  -3.278000e+000  -1.013800e+001  -1.208200e+001
    H  -4.547000e+000  -1.204400e+001  -1.426600e+001
    H  -5.240000e+000  -1.059000e+001  -1.354000e+001
    H  -1.624202e+000  -1.006831e+001  -1.277263e+001
    H  -2.491180e+000  -1.163643e+001  -1.260795e+001
    H  -5.100379e+000  -1.070854e+001  -1.530477e+001
=== === ===

sidechain-sidechain interaction