   08
pair.xyz   00
    C   2.299900e+001   4.222100e+001   4.458100e+001
    C   2.234300e+001   4.227000e+001   4.320800e+001
    H   2.402100e+001   4.185400e+001   4.449300e+001
    H   2.301500e+001   4.322300e+001   4.500500e+001
    H   2.243200e+001   4.156300e+001   4.523300e+001
    H   2.135100e+001   4.270100e+001   4.333400e+001
    H   2.227181e+001   4.125611e+001   4.278734e+001
    H   2.291671e+001   4.291606e+001   4.252722e+001
=== === ===

sidechain-sidechain interaction