   12
pair.xyz   00
    C   1.833000e+000   1.319600e+001   2.999500e+001
    C   2.913000e+000   1.018000e+001   2.797000e+001
    C   2.731000e+000   1.217900e+001   2.932600e+001
    O   3.937000e+000   1.236300e+001   2.929600e+001
    N   2.142000e+000   1.113200e+001   2.877300e+001
    H   9.920000e-001   1.265600e+001   3.043300e+001
    H   1.136000e+000   1.105000e+001   2.879400e+001
    H   3.881000e+000   9.990000e+000   2.843700e+001
    H   2.361421e+000   1.375416e+001   3.078191e+001
    H   1.443469e+000   1.388810e+001   2.923391e+001
    H   2.342372e+000   9.239801e+000   2.794975e+001
    H   3.073807e+000   1.058564e+001   2.696025e+001
=== === ===

backbone-sidechain interaction