   08
pair.xyz   00
    C   5.079000e+000  -1.017900e+001  -1.421000e+001
    C   4.662000e+000  -9.247000e+000  -1.534300e+001
    H   4.898000e+000  -1.122000e+001  -1.447900e+001
    H   6.143000e+000  -1.006000e+001  -1.402800e+001
    H   4.534000e+000  -9.935000e+000  -1.329900e+001
    H   5.159000e+000  -9.562000e+000  -1.625700e+001
    H   3.570928e+000  -9.287781e+000  -1.547679e+001
    H   4.979538e+000  -8.220775e+000  -1.510629e+001
=== === ===

sidechain-sidechain interaction