   15
pair.xyz   00
    C   4.545000e+000  -3.664000e+000  -1.448700e+001
    C   4.981000e+000  -5.092000e+000  -1.244000e+001
    C   5.342000e+000  -4.009000e+000  -1.325300e+001
    C   5.754000e+000  -5.427000e+000  -1.132900e+001
    C   6.468000e+000  -3.254000e+000  -1.292400e+001
    C   6.890000e+000  -4.667000e+000  -1.101200e+001
    C   7.246000e+000  -3.577000e+000  -1.181400e+001
    H   4.110000e+000  -5.684000e+000  -1.268000e+001
    H   5.477000e+000  -6.268000e+000  -1.071000e+001
    H   4.098000e+000  -4.582000e+000  -1.486800e+001
    H   5.229000e+000  -3.304000e+000  -1.525400e+001
    H   6.754000e+000  -2.418000e+000  -1.354600e+001
    H   7.487000e+000  -4.925000e+000  -1.015100e+001
    H   8.124000e+000  -2.993000e+000  -1.157500e+001
    H   3.755188e+000  -2.916512e+000  -1.432129e+001
=== === ===

sidechain-sidechain interaction