   08
pair.xyz   00
    C   1.913100e+001   3.763600e+001  -2.120500e+001
    C   2.032900e+001   3.682800e+001  -2.148100e+001
    H   1.938800e+001   3.869200e+001  -2.113100e+001
    H   1.842300e+001   3.750800e+001  -2.202300e+001
    H   1.866600e+001   3.730900e+001  -2.027400e+001
    H   2.078800e+001   3.719300e+001  -2.240200e+001
    H   1.996700e+001   3.581700e+001  -2.167100e+001
    H   2.109022e+001   3.679718e+001  -2.068753e+001
=== === ===

sidechain-sidechain interaction