   12
pair.xyz   00
    C   5.497000e+000   1.626000e+000   9.419000e+000
    C   7.125000e+000   4.952000e+000   1.040500e+001
    C   5.709000e+000   3.136000e+000   9.563000e+000
    O   4.886000e+000   3.947000e+000   9.115000e+000
    N   6.803000e+000   3.537000e+000   1.023000e+001
    H   5.057000e+000   1.466000e+000   8.432000e+000
    H   7.395000e+000   2.836000e+000   1.065900e+001
    H   6.221000e+000   5.505000e+000   1.065900e+001
    H   6.441344e+000   1.067671e+000   9.499514e+000
    H   4.791999e+000   1.263758e+000   1.018173e+001
    H   7.863024e+000   5.065542e+000   1.121273e+001
    H   7.524334e+000   5.404867e+000   9.485520e+000
=== === ===

backbone-sidechain interaction