   15
pair.xyz   00
    C   2.822000e+001   8.907200e+001   3.723800e+001
    C   2.703200e+001   9.094500e+001   3.846900e+001
    C   2.808800e+001   9.051000e+001   3.766600e+001
    C   2.696900e+001   9.227500e+001   3.892100e+001
    C   2.795400e+001   9.318500e+001   3.857800e+001
    C   2.906800e+001   9.142700e+001   3.731700e+001
    C   2.900300e+001   9.276100e+001   3.776400e+001
    H   2.626300e+001   9.024600e+001   3.875000e+001
    H   2.614600e+001   9.259300e+001   3.954500e+001
    H   2.888100e+001   8.905200e+001   3.637000e+001
    H   2.722800e+001   8.873900e+001   3.693500e+001
    H   2.791100e+001   9.420700e+001   3.893200e+001
    H   2.988900e+001   9.109800e+001   3.669700e+001
    H   2.977200e+001   9.346500e+001   3.748000e+001
    H   2.855741e+001   8.841292e+001   3.805149e+001
=== === ===

sidechain-sidechain interaction