   12
pair.xyz   00
    C   1.777300e+001   4.325800e+001   4.244900e+001
    C   1.850200e+001   4.584500e+001     40
    C   1.837100e+001   4.435400e+001   4.161300e+001
    C   1.954200e+001   4.502900e+001   4.176000e+001
    N   1.773800e+001   4.488000e+001   4.050400e+001
    N   1.959800e+001   4.595600e+001   4.074200e+001
    H   1.826800e+001   4.645200e+001   3.913200e+001
    H   2.034100e+001   4.664600e+001   4.058500e+001
    H   2.028400e+001   4.487000e+001   4.253200e+001
    H   1.677800e+001   4.357100e+001   4.277000e+001
    H   1.838700e+001   4.316400e+001   4.333400e+001
    H   1.769272e+001   4.229181e+001   4.192935e+001
=== === ===

backbone-sidechain interaction