   12
pair.xyz   00
    C   1.846300e+001   9.029200e+001   3.841700e+001
    C   1.901200e+001   8.963700e+001   3.713800e+001
    C   1.945700e+001   9.010300e+001   3.958200e+001
    O   1.827500e+001   9.168800e+001   3.818800e+001
    H   1.751400e+001   8.982200e+001   3.867500e+001
    H   1.915400e+001   8.857400e+001   3.732200e+001
    H   2.041000e+001   9.057300e+001   3.933600e+001
    H   1.906000e+001   9.055900e+001   4.048900e+001
    H   1.962200e+001   8.903800e+001   3.976200e+001
    H   1.792300e+001   9.210500e+001   3.898000e+001
    H   1.998311e+001   9.008620e+001   3.688272e+001
    H   1.825512e+001   8.962615e+001   3.633987e+001
=== === ===

sidechain-sidechain interaction