   22
pair.xyz   00
    C   3.434000e+000  -3.412000e+000  -1.820400e+001
    C   4.945000e+000  -3.690000e+000  -1.812000e+001
    C   1.404000e+000  -6.559000e+000  -1.753100e+001
    C   3.337000e+000   2.400000e-002  -1.980300e+001
    C   3.105000e+000  -2.353000e+000  -1.924900e+001
    C   2.024000e+000  -5.184000e+000  -1.734900e+001
    O   2.633000e+000  -2.659000e+000  -2.035400e+001
    O   1.945000e+000  -4.621000e+000  -1.625700e+001
    N   2.653000e+000  -4.637000e+000  -1.838600e+001
    N   3.364000e+000  -1.102000e+000  -1.887300e+001
    H   3.169000e+000  -2.953000e+000  -1.725500e+001
    H   2.700000e+000  -5.127000e+000  -1.927300e+001
    H   5.442000e+000  -2.770000e+000  -1.782800e+001
    H   5.121000e+000  -4.413000e+000  -1.732400e+001
    H   3.749000e+000  -9.460000e-001  -1.795000e+001
    H   1.670000e+000  -6.941000e+000  -1.851400e+001
    H   2.710000e+000  -2.230000e-001  -2.065500e+001
    H   5.413415e+000  -4.069540e+000  -1.904007e+001
    H   1.816457e+000  -7.200600e+000  -1.673839e+001
    H   3.069286e-001  -6.517520e+000  -1.746234e+001
    H   2.935063e+000   9.269127e-001  -1.932010e+001
    H   4.368117e+000   1.962146e-001  -2.014526e+001
=== === ===

backbone-sidechain interaction