   19
pair.xyz   00
    C  -1.537000e+000  -7.700000e-002  -2.113700e+001
    C  -6.840000e-001  -1.180000e-001  -1.868000e+001
    C  -1.243000e+000   5.380000e-001  -1.982800e+001
    C  -5.820000e-001   8.590000e-001  -1.765500e+001
    C  -1.441000e+000   1.835000e+000  -1.947600e+001
    C  -2.460000e-001  -1.425000e+000  -1.841200e+001
    C  -7.500000e-002   5.710000e-001  -1.640100e+001
    C   2.720000e-001  -1.712000e+000  -1.714300e+001
    C   3.500000e-001  -7.210000e-001  -1.615300e+001
    N  -1.046000e+000   2.037000e+000  -1.817600e+001
    H  -2.910000e-001  -2.185000e+000  -1.917700e+001
    H  -2.326000e+000   4.890000e-001  -2.163600e+001
    H  -1.920000e+000  -1.080000e+000  -2.095000e+001
    H  -1.850000e+000   2.601000e+000  -2.012900e+001
    H  -1.066000e+000   2.933000e+000  -1.770100e+001
    H  -1.600000e-002   1.335000e+000  -1.564200e+001
    H   5.980000e-001  -2.713000e+000  -1.691500e+001
    H   7.550000e-001  -9.680000e-001  -1.518200e+001
    H  -6.581909e-001  -1.455442e-001  -2.179502e+001
=== === ===

sidechain-sidechain interaction