   09
pair.xyz   00
    C   6.352000e+000   2.599300e+001   5.055000e+000
    C   5.912000e+000   2.675800e+001   3.807000e+000
    O   6.771000e+000   2.689700e+001   6.060000e+000
    H   5.531000e+000   2.537800e+001   5.425000e+000
    H   7.189000e+000   2.534300e+001   4.815000e+000
    H   5.049000e+000   2.736800e+001   4.066000e+000
    H   5.990000e+000   2.729400e+001   6.483000e+000
    H   5.619809e+000   2.607120e+001   2.998958e+000
    H   6.711750e+000   2.743847e+001   3.479340e+000
=== === ===

sidechain-sidechain interaction