   14
pair.xyz   00
    C   6.352000e+000   2.468300e+001   8.652000e+000
    C   5.064000e+000   2.384700e+001   8.417000e+000
    C   6.113000e+000   2.584700e+001   9.618000e+000
    C   7.526000e+000   2.380400e+001   9.114000e+000
    H   6.646000e+000   2.509700e+001   7.696000e+000
    H   5.341000e+000   2.304800e+001   7.729000e+000
    H   5.834000e+000   2.548300e+001   1.060800e+001
    H   7.027000e+000   2.643500e+001   9.710000e+000
    H   5.332000e+000   2.649200e+001   9.230000e+000
    H   8.417000e+000   2.443100e+001   9.162000e+000
    H   7.332000e+000   2.342700e+001   1.011200e+001
    H   4.269530e+000   2.441770e+001   7.913886e+000
    H   4.704660e+000   2.334076e+001   9.325071e+000
    H   7.740383e+000   2.295369e+001   8.449918e+000
=== === ===

sidechain-sidechain interaction