   14
pair.xyz   00
    C   1.552100e+001   9.138700e+001   4.179600e+001
    C   1.504800e+001   9.047800e+001   4.066000e+001
    C   1.631300e+001   9.060800e+001   4.286600e+001
    C   1.639700e+001   9.243500e+001   4.117000e+001
    H   1.465500e+001   9.186300e+001   4.224900e+001
    H   1.590700e+001   8.994700e+001   4.025000e+001
    H   1.459800e+001   9.109000e+001   3.987500e+001
    H   1.719100e+001   9.014300e+001   4.241700e+001
    H   1.663600e+001   9.128600e+001   4.365700e+001
    H   1.567900e+001   8.983300e+001   4.330000e+001
    H   1.582000e+001   9.299900e+001   4.043600e+001
    H   1.676000e+001   9.311000e+001   4.194300e+001
    H   1.724200e+001   9.195600e+001   4.068500e+001
    H   1.430875e+001   8.971879e+001   4.095513e+001
=== === ===

sidechain-sidechain interaction