   09
pair.xyz   00
    C   1.406000e+001   9.365200e+001   4.489700e+001
    C   1.536600e+001   9.410500e+001   4.427700e+001
    O   1.644700e+001   9.380600e+001   4.478800e+001
    N   1.526200e+001   9.483700e+001   4.317600e+001
    H   1.329700e+001   9.363600e+001   4.411800e+001
    H   1.377400e+001   9.437300e+001   4.566300e+001
    H   1.610100e+001   9.516600e+001   4.271500e+001
    H   1.434900e+001   9.505900e+001   4.280200e+001
    H   1.412420e+001   9.264908e+001   4.534425e+001
=== === ===

sidechain-sidechain interaction