   19
pair.xyz   00
    C   2.738500e+001   3.609000e+001   3.128000e+001
    C   2.916000e+001   3.847000e+001   3.359200e+001
    C   2.424600e+001   3.702000e+001   2.938100e+001
    C   2.603500e+001   3.672800e+001   3.100700e+001
    C   2.849700e+001   3.794600e+001   3.234200e+001
    O   2.545900e+001   3.741500e+001   3.185500e+001
    O   2.840300e+001   3.864600e+001   3.133000e+001
    N   2.804900e+001   3.670200e+001   3.240800e+001
    N   2.553600e+001   3.649500e+001   2.980200e+001
    H   2.801500e+001   3.619200e+001   3.039600e+001
    H   2.723400e+001   3.502900e+001   3.147800e+001
    H   2.820200e+001   3.615000e+001   3.324600e+001
    H   2.606400e+001   3.593100e+001   2.914500e+001
    H   2.899500e+001   3.774300e+001   3.438700e+001
    H   2.363800e+001   3.720600e+001   3.026400e+001
    H   3.023542e+001   3.862136e+001   3.341718e+001
    H   2.866897e+001   3.940046e+001   3.391314e+001
    H   2.437820e+001   3.797703e+001   2.885506e+001
    H   2.373576e+001   3.630393e+001   2.872001e+001
=== === ===

backbone-sidechain interaction