   11
pair.xyz   00
    C   2.967100e+001   3.383500e+001   2.976000e+001
    C   3.087900e+001   3.306500e+001   3.029800e+001
    C   2.904200e+001   3.331500e+001   2.847900e+001
    H   2.890300e+001   3.380400e+001   3.053300e+001
    H   2.995500e+001   3.488100e+001   2.961400e+001
    H   3.060200e+001   3.202500e+001   3.047200e+001
    H   2.975700e+001   3.341600e+001   2.766100e+001
    H   2.879800e+001   3.225900e+001   2.857800e+001
    H   3.117404e+001   3.354889e+001   3.124076e+001
    H   3.172727e+001   3.310702e+001   2.959895e+001
    H   2.815139e+001   3.390777e+001   2.822319e+001
=== === ===

backbone-sidechain interaction