   11
pair.xyz   00
    C   3.005600e+001   1.220300e+001   6.202000e+000
    C   2.971300e+001   1.076800e+001   6.597000e+000
    C   3.145900e+001   1.233600e+001   5.622000e+000
    H   2.936800e+001   1.247600e+001   5.416000e+000
    H   2.994500e+001   1.287000e+001   7.058000e+000
    H   3.049600e+001   1.039000e+001   7.255000e+000
    H   3.212600e+001   1.209200e+001   6.454000e+000
    H   3.172300e+001   1.159300e+001   4.884000e+000
    H   2.963319e+001   1.013175e+001   5.703236e+000
    H   2.876502e+001   1.073988e+001   7.154256e+000
    H   3.169974e+001   1.336349e+001   5.311651e+000
=== === ===

sidechain-sidechain interaction