   11
pair.xyz   00
    C   2.739600e+001   1.478400e+001   5.495000e+000
    C   2.764800e+001   1.549200e+001   4.163000e+000
    C   2.731600e+001   1.562800e+001   6.766000e+000
    H   2.645600e+001   1.424200e+001   5.396000e+000
    H   2.817000e+001   1.405600e+001   5.649000e+000
    H   2.865100e+001   1.591900e+001   4.190000e+000
    H   2.656400e+001   1.640600e+001   6.641000e+000
    H   2.688611e+001   1.626898e+001   4.002323e+000
    H   2.762485e+001   1.474609e+001   3.354868e+000
    H   2.700813e+001   1.499057e+001   7.607959e+000
    H   2.828983e+001   1.609535e+001   6.973953e+000
=== === ===

sidechain-sidechain interaction