   08
pair.xyz   00
    C  -7.898000e+000   4.676000e+000   3.818100e+001
    C  -7.881000e+000   3.856000e+000   3.943700e+001
    H  -7.812000e+000   5.746000e+000   3.835800e+001
    H  -7.077000e+000   4.352000e+000   3.754900e+001
    H  -8.786000e+000   4.419000e+000   3.765200e+001
    H  -7.913000e+000   2.802000e+000   3.915400e+001
    H  -8.737538e+000   4.059527e+000   4.009648e+001
    H  -6.935218e+000   4.044872e+000   3.996598e+001
=== === ===

backbone-sidechain interaction