   11
pair.xyz   00
    C   1.275000e+000  -7.260000e-001   6.695500e+001
    C   1.867000e+000  -1.981000e+000   6.743700e+001
    C   1.366000e+000  -7.510000e-001   6.544400e+001
    H   1.782000e+000   1.430000e-001   6.736700e+001
    H   2.250000e-001  -7.120000e-001   6.724500e+001
    H   2.880000e+000  -1.770000e+000   6.778400e+001
    H   1.297000e+000  -2.394000e+000   6.826700e+001
    H   3.850000e-001  -5.310000e-001   6.501900e+001
    H   1.933612e+000  -2.696714e+000   6.660434e+001
    H   1.645782e+000  -1.786868e+000   6.520172e+001
    H   2.077339e+000   7.232699e-003   6.508472e+001
=== === ===

sidechain-sidechain interaction