   11
pair.xyz   00
    C   1.047200e+001   9.000400e+001   4.879000e+001
    C   1.091700e+001   8.891600e+001   4.983800e+001
    C   1.053200e+001   9.131000e+001   4.960100e+001
    H   9.463000e+000   8.984100e+001   4.841300e+001
    H   1.116000e+001   9.006500e+001   4.794500e+001
    H   1.011400e+001   8.868400e+001   5.054500e+001
    H   1.125400e+001   8.799900e+001   4.935800e+001
    H   1.091800e+001   9.213700e+001   4.899900e+001
    H   1.173916e+001   8.944884e+001   5.033813e+001
    H   1.128222e+001   9.109178e+001   5.037530e+001
    H   9.538599e+000   9.158119e+001   4.998780e+001
=== === ===

sidechain-sidechain interaction