   12
pair.xyz   00
    C   2.932900e+001   7.784000e+000   4.260000e+000
    C   2.971300e+001   1.076800e+001   6.597000e+000
    C   2.947900e+001   8.606000e+000   5.541000e+000
    O   2.947400e+001   8.064000e+000   6.647000e+000
    N   2.960700e+001   9.923000e+000   5.410000e+000
    H   2.881000e+001   6.864000e+000   4.530000e+000
    H   2.960000e+001   1.035700e+001   4.493000e+000
    H   3.049600e+001   1.039000e+001   7.255000e+000
    H   2.873442e+001   8.353740e+000   3.530703e+000
    H   3.032314e+001   7.539762e+000   3.857473e+000
    H   2.996002e+001   1.180147e+001   6.312527e+000
    H   2.876502e+001   1.073988e+001   7.154256e+000
=== === ===

backbone-sidechain interaction