   06
pair.xyz   00
    C   3.039600e+001   8.569000e+000   1.041800e+001
    O   3.114800e+001   7.865000e+000   9.435000e+000
    H   3.191800e+001   8.400000e+000   9.206000e+000
    H   3.015500e+001   9.562000e+000   1.003800e+001
    H   2.947138e+001   8.014946e+000   1.063733e+001
    H   3.101149e+001   8.671582e+000   1.132390e+001
=== === ===

backbone-sidechain interaction