   12
pair.xyz   00
    C   2.140300e+001   3.745200e+001   2.486500e+001
    C   2.509400e+001   3.731900e+001   2.401800e+001
    C   2.270700e+001   3.759800e+001   2.410800e+001
    O   2.272300e+001   3.814800e+001   2.300800e+001
    N   2.381200e+001   3.712400e+001   2.467600e+001
    H   2.073300e+001   3.690800e+001   2.425900e+001
    H   2.376200e+001   3.663500e+001   2.556200e+001
    H   2.514500e+001   3.836500e+001   2.369800e+001
    H   2.153453e+001   3.696269e+001   2.584136e+001
    H   2.096191e+001   3.845330e+001   2.497834e+001
    H   2.593166e+001   3.713677e+001   2.470729e+001
    H   2.520996e+001   3.667903e+001   2.313088e+001
=== === ===

backbone-sidechain interaction