   08
pair.xyz   00
    C   1.994300e+001   3.542000e+001   2.265900e+001
    C   1.918400e+001   3.418800e+001   2.220600e+001
    H   2.101500e+001   3.526500e+001   2.277500e+001
    H   1.976900e+001   3.624700e+001   2.196900e+001
    H   1.945300e+001   3.565700e+001   2.359700e+001
    H   1.814500e+001   3.427500e+001   2.252700e+001
    H   1.962065e+001   3.328045e+001   2.264836e+001
    H   1.919484e+001   3.412681e+001   2.110776e+001
=== === ===

backbone-sidechain interaction