   08
pair.xyz   00
    C   7.199000e+000   4.526000e+000   1.750000e+001
    C   8.569000e+000   3.851000e+000   1.759300e+001
    H   6.433000e+000   3.926000e+000   1.798300e+001
    H   7.230000e+000   5.505000e+000   1.797600e+001
    H   6.923000e+000   4.657000e+000   1.645300e+001
    H   8.845000e+000   3.755000e+000   1.864400e+001
    H   8.547344e+000   2.851953e+000   1.713318e+001
    H   9.319290e+000   4.482673e+000   1.709495e+001
=== === ===

sidechain-sidechain interaction