   22
pair.xyz   00
    C   1.162300e+001   3.680000e-001   1.781200e+001
    C   1.195500e+001  -2.860000e-001   1.914400e+001
    C   8.539000e+000   2.467000e+000   1.695600e+001
    C   1.030600e+001  -2.462000e+000   1.559500e+001
    C   1.154300e+001  -6.630000e-001   1.668700e+001
    C   9.910000e+000   1.804000e+000   1.685400e+001
    O   1.247400e+001  -8.030000e-001   1.589400e+001
    O   1.056300e+001   1.897000e+000   1.581500e+001
    N   1.034700e+001   1.079000e+000   1.788000e+001
    N   1.042700e+001  -1.399000e+000   1.659500e+001
    H   1.241200e+001   1.072000e+000   1.756000e+001
    H   9.805000e+000   1.022000e+000   1.873600e+001
    H   1.118500e+001  -1.011000e+000   1.941400e+001
    H   1.291800e+001  -7.940000e-001   1.907300e+001
    H   1.201800e+001   4.750000e-001   1.992300e+001
    H   9.693000e+000  -1.293000e+000   1.728500e+001
    H   8.202000e+000   2.612000e+000   1.592800e+001
    H   1.114800e+001  -3.148000e+000   1.571000e+001
    H   7.817633e+000   1.803553e+000   1.745547e+001
    H   8.560656e+000   3.466047e+000   1.741582e+001
    H   9.376946e+000  -3.035508e+000   1.572896e+001
    H   1.035161e+001  -2.042116e+000   1.457931e+001
=== === ===

backbone-sidechain interaction