   12
pair.xyz   00
    C   2.381900e+001   4.631900e+001   3.563900e+001
    C   2.646700e+001   4.466800e+001   3.779300e+001
    C   2.516100e+001   4.606800e+001   3.631000e+001
    O   2.612100e+001   4.680500e+001   3.609300e+001
    N   2.523200e+001   4.501500e+001   3.711500e+001
    H   2.399700e+001   4.693500e+001   3.475700e+001
    H   2.439500e+001   4.447800e+001   3.731300e+001
    H   2.680400e+001   4.550000e+001   3.841300e+001
    H   2.629900e+001   4.379600e+001   3.842200e+001
    H   2.340021e+001   4.535865e+001   3.530382e+001
    H   2.313049e+001   4.681192e+001   3.634113e+001
    H   2.724974e+001   4.442425e+001   3.705958e+001
=== === ===

backbone-sidechain interaction