   08
pair.xyz   00
    C   2.744000e+001   3.390000e+001   1.589700e+001
    C   2.832300e+001   3.309100e+001   1.495500e+001
    H   2.805100e+001   3.436400e+001   1.667100e+001
    H   2.692600e+001   3.468100e+001   1.533600e+001
    H   2.667500e+001   3.327000e+001   1.634800e+001
    H   2.768900e+001   3.248100e+001   1.430900e+001
    H   2.899823e+001   3.243945e+001   1.552906e+001
    H   2.890433e+001   3.377964e+001   1.432426e+001
=== === ===

sidechain-sidechain interaction