   12
pair.xyz   00
    C   2.812200e+001   4.329400e+001   3.466400e+001
    C   2.814400e+001   4.678300e+001   3.313300e+001
    C   2.865000e+001   4.455700e+001   3.399600e+001
    O   2.984600e+001   4.467800e+001   3.373700e+001
    N   2.775900e+001   4.551600e+001   3.374600e+001
    H   2.896600e+001   4.276000e+001   3.510300e+001
    H   2.677300e+001   4.532600e+001   3.390100e+001
    H   2.864800e+001   4.660100e+001   3.218100e+001
    H   2.740206e+001   4.355813e+001   3.545262e+001
    H   2.764523e+001   4.264203e+001   3.391725e+001
    H   2.725967e+001   4.741282e+001   3.295613e+001
    H   2.884119e+001   4.732213e+001   3.379122e+001
=== === ===

backbone-sidechain interaction