   16
pair.xyz   00
    C   1.488400e+001   3.503100e+001   2.360500e+001
    C   1.589700e+001   3.224900e+001   2.127300e+001
    C   1.669100e+001   3.294600e+001   2.035200e+001
    C   1.528500e+001   3.292300e+001   2.228000e+001
    C   1.545900e+001   3.429600e+001   2.241300e+001
    C   1.683400e+001   3.430900e+001   2.041200e+001
    C   1.623600e+001   3.498300e+001   2.146600e+001
    O   1.727900e+001   3.229500e+001   1.935400e+001
    H   1.573600e+001   3.118900e+001   2.114200e+001
    H   1.451600e+001   3.243500e+001   2.283500e+001
    H   1.742200e+001   3.484300e+001   1.968000e+001
    H   1.742300e+001   3.288100e+001   1.857400e+001
    H   1.406000e+001   3.447100e+001   2.405100e+001
    H   1.452200e+001   3.601000e+001   2.328600e+001
    H   1.637900e+001   3.605100e+001   2.156400e+001
    H   1.570315e+001   3.515169e+001   2.432917e+001
=== === ===

sidechain-sidechain interaction