   08
pair.xyz   00
    C   2.005900e+001  -6.006000e+000  -4.401000e+000
    C   2.048200e+001  -4.606000e+000  -4.939000e+000
    H   2.080200e+001  -6.388000e+000  -3.699000e+000
    H   1.908900e+001  -5.946000e+000  -3.905000e+000
    H   1.996300e+001  -6.705000e+000  -5.233000e+000
    H   1.968700e+001  -4.286000e+000  -5.615000e+000
    H   2.140649e+001  -4.659840e+000  -5.532655e+000
    H   2.055438e+001  -3.854247e+000  -4.139232e+000
=== === ===

sidechain-sidechain interaction