   19
pair.xyz   00
    C   1.927500e+001   1.349200e+001   6.732000e+000
    C   1.992100e+001   1.252300e+001   3.157000e+000
    C   1.719700e+001   1.187500e+001   9.506000e+000
    C   1.830400e+001   1.253700e+001   7.414000e+000
    C   2.009400e+001   1.260200e+001   4.665000e+000
    O   1.774100e+001   1.163200e+001   6.797000e+000
    O   2.092900e+001   1.190400e+001   5.250000e+000
    N   1.927000e+001   1.339700e+001   5.305000e+000
    N   1.803800e+001   1.277000e+001   8.703000e+000
    H   2.027300e+001   1.332300e+001   7.140000e+000
    H   1.897800e+001   1.450200e+001   7.003000e+000
    H   1.856400e+001   1.390800e+001   4.788000e+000
    H   1.850000e+001   1.354500e+001   9.176000e+000
    H   1.962200e+001   1.149500e+001   2.951000e+000
    H   1.630600e+001   1.159900e+001   8.938000e+000
    H   1.917836e+001   1.322816e+001   2.755469e+000
    H   2.089013e+001   1.266689e+001   2.656917e+000
    H   1.775532e+001   1.096079e+001   9.755985e+000
    H   1.687863e+001   1.241973e+001   1.040706e+001
=== === ===

backbone-sidechain interaction