   19
pair.xyz   00
    C   2.071500e+001   1.375600e+001   1.225900e+001
    C   1.853200e+001   1.190800e+001   1.470600e+001
    C   2.295000e+001   1.095300e+001   1.092200e+001
    C   2.177500e+001   1.301300e+001   1.148900e+001
    C   1.962800e+001   1.286000e+001   1.421200e+001
    O   2.243500e+001   1.360600e+001   1.066200e+001
    O   2.041100e+001   1.347600e+001   1.498200e+001
    N   1.968000e+001   1.296900e+001   1.288700e+001
    N   2.200100e+001   1.173100e+001   1.174500e+001
    H   2.022500e+001   1.443300e+001   1.156300e+001
    H   2.122000e+001   1.438000e+001   1.298900e+001
    H   1.900400e+001   1.249400e+001   1.230000e+001
    H   2.147800e+001   1.129200e+001   1.248800e+001
    H   1.822200e+001   1.223000e+001   1.570300e+001
    H   2.394200e+001   1.141100e+001   1.098500e+001
    H   1.767404e+001   1.187712e+001   1.401828e+001
    H   1.890582e+001   1.087440e+001   1.474994e+001
    H   2.299623e+001   9.928128e+000   1.131886e+001
    H   2.261697e+001   1.094359e+001   9.873668e+000
=== === ===

backbone-sidechain interaction