   11
pair.xyz   00
    C   1.869800e+001   1.689500e+001   1.274900e+001
    C   1.767700e+001   1.762200e+001   1.185800e+001
    C   1.882700e+001   1.739300e+001   1.416400e+001
    H   1.844500e+001   1.583400e+001   1.277900e+001
    H   1.969100e+001   1.698100e+001   1.230800e+001
    H   1.789500e+001   1.868900e+001   1.190900e+001
    H   1.790100e+001   1.723200e+001   1.471400e+001
    H   1.962600e+001   1.684500e+001   1.466600e+001
    H   1.907500e+001   1.845500e+001   1.416300e+001
    H   1.778232e+001   1.729594e+001   1.081273e+001
    H   1.664640e+001   1.745262e+001   1.220320e+001
=== === ===

backbone-sidechain interaction