   08
pair.xyz   00
    C   2.588300e+001  -4.542000e+000   6.254900e+001
    C   2.611800e+001  -4.643000e+000   6.103300e+001
    H   2.580600e+001  -5.540000e+000   6.298100e+001
    H   2.671900e+001  -4.032000e+000   6.302200e+001
    H   2.497900e+001  -3.976000e+000   6.276900e+001
    H   2.696800e+001  -5.289000e+000   6.083400e+001
    H   2.632200e+001  -3.645000e+000   6.068000e+001
    H   2.524005e+001  -4.953414e+000   6.044746e+001
=== === ===

sidechain-sidechain interaction