   15
pair.xyz   00
    C   1.514700e+001  -2.771000e+000   2.207300e+001
    C   1.409600e+001  -2.018000e+000   2.285300e+001
    C   1.440100e+001  -1.464000e+000   2.410600e+001
    C   1.281900e+001  -1.823000e+000   2.233400e+001
    C   1.344300e+001  -7.160000e-001   2.479000e+001
    C   1.186400e+001  -1.061000e+000   2.300200e+001
    C   1.219400e+001  -5.110000e-001   2.423900e+001
    H   1.609900e+001  -2.262000e+000   2.216000e+001
    H   1.488000e+001  -2.733000e+000   2.101600e+001
    H   1.538800e+001  -1.576000e+000   2.451200e+001
    H   1.256900e+001  -2.247000e+000   2.137100e+001
    H   1.368300e+001  -2.810000e-001   2.575000e+001
    H   1.088700e+001  -8.990000e-001   2.256700e+001
    H   1.146800e+001   8.200000e-002   2.477800e+001
    H   1.528073e+001  -3.825091e+000   2.235762e+001
=== === ===

sidechain-sidechain interaction