   16
pair.xyz   00
    C   3.571700e+001   4.717700e+001   3.762600e+001
    C   3.734200e+001   4.710200e+001   3.956000e+001
    C   3.684400e+001   4.652300e+001   3.839000e+001
    C   3.839200e+001   4.650300e+001   4.026300e+001
    C   3.895300e+001   4.531400e+001   3.979200e+001
    C   3.741200e+001   4.533100e+001   3.793300e+001
    C   3.846300e+001   4.472700e+001   3.862600e+001
    O   3.998200e+001   4.472400e+001   4.046800e+001
    H   3.690900e+001   4.802300e+001   3.992800e+001
    H   3.876500e+001   4.695700e+001   4.117000e+001
    H   3.502300e+001   4.761700e+001   3.834200e+001
    H   3.517300e+001   4.639100e+001   3.712500e+001
    H   3.702900e+001   4.486200e+001   3.703600e+001
    H   4.019100e+001   4.520300e+001   4.127700e+001
    H   3.889900e+001   4.380600e+001   3.826600e+001
    H   3.604041e+001   4.795577e+001   3.691966e+001
=== === ===

sidechain-sidechain interaction