   08
pair.xyz   00
    C   1.528000e+001   2.656800e+001   1.302400e+001
    C   1.560400e+001   2.757600e+001   1.418600e+001
    H   1.501600e+001   2.709600e+001   1.213100e+001
    H   1.616700e+001   2.597600e+001   1.281500e+001
    H   1.446100e+001   2.591200e+001   1.331800e+001
    H   1.584100e+001   2.701500e+001   1.509100e+001
    H   1.473517e+001   2.822353e+001   1.437528e+001
    H   1.647482e+001   2.818029e+001   1.389190e+001
=== === ===

sidechain-sidechain interaction