   19
pair.xyz   00
    C   1.409800e+001   2.776200e+001   2.035800e+001
    C   1.471600e+001   2.512300e+001   1.769700e+001
    C   1.395700e+001   2.621100e+001   1.819500e+001
    C   1.458800e+001   2.666000e+001   1.943100e+001
    C   1.567500e+001   2.584500e+001   1.962200e+001
    C   1.436100e+001   2.446800e+001   1.652100e+001
    C   1.323900e+001   2.489200e+001   1.583900e+001
    C   1.243500e+001   2.592700e+001   1.633100e+001
    C   1.280800e+001   2.661900e+001   1.748200e+001
    N   1.577100e+001   2.494200e+001   1.856800e+001
    H   1.495700e+001   2.364600e+001   1.615000e+001
    H   1.295000e+001   2.438500e+001   1.492600e+001
    H   1.648400e+001   2.422400e+001   1.849600e+001
    H   1.154000e+001   2.621600e+001   1.579300e+001
    H   1.634700e+001   2.589500e+001   2.047300e+001
    H   1.219300e+001   2.741900e+001   1.786300e+001
    H   1.441500e+001   2.752400e+001   2.137500e+001
    H   1.300700e+001   2.776600e+001   2.035200e+001
    H   1.445951e+001   2.876877e+001   2.010163e+001
=== === ===

sidechain-sidechain interaction