   15
pair.xyz   00
    C   1.573400e+001   2.113700e+001   1.210100e+001
    C   1.663100e+001   2.306800e+001   1.348700e+001
    C   1.646900e+001   2.172600e+001   1.328700e+001
    C   1.730700e+001   2.353900e+001   1.453700e+001
    C   1.784500e+001   2.270700e+001   1.545700e+001
    C   1.702100e+001   2.087500e+001   1.420300e+001
    C   1.769200e+001   2.136400e+001   1.530300e+001
    H   1.619900e+001   2.377700e+001   1.280100e+001
    H   1.741500e+001   2.460800e+001   1.466200e+001
    H   1.476500e+001   2.078100e+001   1.245400e+001
    H   1.628700e+001   2.027000e+001   1.175100e+001
    H   1.838500e+001   2.310300e+001   1.630700e+001
    H   1.690900e+001   1.980700e+001   1.408500e+001
    H   1.811300e+001   2.068300e+001   1.603100e+001
    H   1.556268e+001   2.181368e+001   1.125085e+001
=== === ===

sidechain-sidechain interaction