   12
pair.xyz   00
    C   1.190200e+001  -2.288300e+001  -1.373900e+001
    C   1.191000e+001  -2.617700e+001  -1.180800e+001
    C   1.189200e+001  -2.387800e+001  -1.259300e+001
    O   1.160200e+001  -2.351100e+001  -1.145300e+001
    N   1.210300e+001  -2.516800e+001  -1.284800e+001
    H   1.087000e+001  -2.255400e+001  -1.380400e+001
    H   1.230900e+001  -2.547100e+001  -1.379200e+001
    H   1.093300e+001  -2.600600e+001  -1.135700e+001
    H   1.252505e+001  -2.201575e+001  -1.347502e+001
    H   1.219490e+001  -2.328790e+001  -1.471893e+001
    H   1.189769e+001  -2.718897e+001  -1.223901e+001
    H   1.264634e+001  -2.610986e+001  -1.099357e+001
=== === ===

backbone-sidechain interaction