   06
pair.xyz   00
    C   3.923800e+001   1.042200e+001   2.173000e+001
    O   3.947900e+001   1.084200e+001   2.307200e+001
    H   3.988900e+001   1.009800e+001   2.353500e+001
    H   3.890000e+001   9.386000e+000   2.173000e+001
    H   3.846329e+001   1.106232e+001   2.128300e+001
    H   4.017143e+001   1.048548e+001   2.115148e+001
=== === ===

backbone-sidechain interaction