   12
pair.xyz   00
    C   4.243700e+001   1.257500e+001   2.360600e+001
    C   3.949200e+001   1.390700e+001   2.560100e+001
    C   4.117500e+001   1.334600e+001   2.392300e+001
    O   4.063200e+001   1.403700e+001   2.306000e+001
    N   4.071800e+001   1.325300e+001   2.516700e+001
    H   4.216400e+001   1.158600e+001   2.323600e+001
    H   4.302000e+001   1.245500e+001   2.452000e+001
    H   4.118600e+001   1.263200e+001   2.581500e+001
    H   3.873900e+001   1.373900e+001   2.482400e+001
    H   4.300647e+001   1.312014e+001   2.283885e+001
    H   3.913719e+001   1.343704e+001   2.653012e+001
    H   3.963812e+001   1.498600e+001   2.575720e+001
=== === ===

backbone-sidechain interaction