   19
pair.xyz   00
    C   1.914400e+001   2.025900e+001   1.464600e+001
    C   1.563100e+001   1.944800e+001   1.361900e+001
    C   1.686000e+001   2.011300e+001   1.339500e+001
    C   1.775700e+001   1.975200e+001   1.444900e+001
    C   1.704900e+001   1.895000e+001   1.527500e+001
    C   1.470800e+001   2.039500e+001   1.165100e+001
    C   1.454500e+001   1.959800e+001   1.276200e+001
    C   1.591400e+001   2.103500e+001   1.140000e+001
    C   1.698900e+001   2.091400e+001   1.226500e+001
    N   1.577300e+001   1.875800e+001   1.479900e+001
    H   1.388400e+001   2.051800e+001   1.096300e+001
    H   1.359900e+001   1.912200e+001   1.296200e+001
    H   1.600700e+001   2.165900e+001   1.052100e+001
    H   1.791200e+001   2.143700e+001   1.207300e+001
    H   1.501100e+001   1.842500e+001   1.536700e+001
    H   1.743600e+001   1.847200e+001   1.615500e+001
    H   1.904300e+001   2.124500e+001   1.510100e+001
    H   1.960000e+001   2.041200e+001   1.366800e+001
    H   1.982101e+001   1.966878e+001   1.528106e+001
=== === ===

sidechain-sidechain interaction