   09
pair.xyz   00
    C   3.158400e+001   2.206700e+001   1.383600e+001
    C   3.126400e+001   2.118600e+001   1.496700e+001
    O   3.009600e+001   2.083000e+001   1.509000e+001
    N   3.224800e+001   2.089500e+001   1.584600e+001
    H   3.134100e+001   2.155900e+001   1.290200e+001
    H   3.264900e+001   2.230000e+001   1.383200e+001
    H   3.204000e+001   2.028700e+001   1.662200e+001
    H   3.320000e+001   2.117700e+001   1.563200e+001
    H   3.100298e+001   2.299677e+001   1.392517e+001
=== === ===

sidechain-sidechain interaction