   09
pair.xyz   00
    C   1.485400e+001  -2.355000e+000   3.751000e+001
    C   1.289800e+001  -3.846000e+000   3.623200e+001
    S   1.470000e+001  -3.770000e+000   3.643300e+001
    H   1.421300e+001  -2.486000e+000   3.837500e+001
    H   1.589000e+001  -2.243000e+000   3.782900e+001
    H   1.453500e+001  -1.462000e+000   3.698100e+001
    H   1.252200e+001  -2.880000e+000   3.589200e+001
    H   1.244300e+001  -4.088000e+000   3.719100e+001
    H   1.265707e+001  -4.615674e+000   3.548397e+001
=== === ===

backbone-sidechain interaction