   12
pair.xyz   00
    C   1.203300e+001  -2.136000e+000   4.088400e+001
    C   1.288900e+001  -5.791000e+000   4.123100e+001
    C   1.284100e+001  -3.417000e+000   4.091600e+001
    O   1.402100e+001  -3.421000e+000   4.053500e+001
    N   1.220000e+001  -4.514000e+000   4.131500e+001
    H   1.141200e+001  -2.116000e+000   4.178200e+001
    H   1.122400e+001  -4.489000e+000   4.158600e+001
    H   1.391600e+001  -5.673000e+000   4.158300e+001
    H   1.271796e+001  -1.275292e+000   4.088700e+001
    H   1.137739e+001  -2.125264e+000   4.000079e+001
    H   1.241465e+001  -6.553433e+000   4.186636e+001
    H   1.292290e+001  -6.143010e+000   4.018940e+001
=== === ===

backbone-sidechain interaction