   12
pair.xyz   00
    C   4.770000e+000   1.347700e+001   1.458000e+001
    C   1.900000e+000   1.102200e+001   1.412500e+001
    C   3.837000e+000   1.231300e+001   1.483100e+001
    O   4.101000e+000   1.151100e+001   1.572500e+001
    N   2.770000e+000   1.219000e+001   1.404200e+001
    H   5.754000e+000   1.312300e+001   1.487700e+001
    H   2.564000e+000   1.292600e+001   1.337400e+001
    H   1.465000e+000   1.097400e+001   1.512500e+001
    H   4.806225e+000   1.375623e+001   1.351665e+001
    H   4.508850e+000   1.433115e+001   1.522205e+001
    H   1.082017e+000   1.109525e+001   1.339320e+001
    H   2.491664e+000   1.010931e+001   1.396089e+001
=== === ===

backbone-sidechain interaction