   11
pair.xyz   00
    C   1.859400e+001   8.401600e+001   3.215500e+001
    C   1.919100e+001   8.284500e+001   3.292200e+001
    C   1.952900e+001   8.419600e+001   3.097800e+001
    H   1.855700e+001   8.490900e+001   3.277200e+001
    H   1.759300e+001   8.376200e+001   3.180200e+001
    H   2.002700e+001   8.315300e+001   3.355100e+001
    H   1.844700e+001   8.234600e+001   3.353600e+001
    H   2.040600e+001   8.478400e+001   3.125500e+001
    H   1.902300e+001   8.466600e+001   3.013800e+001
    H   1.954507e+001   8.219800e+001   3.210589e+001
    H   1.982601e+001   8.316723e+001   3.072619e+001
=== === ===

backbone-sidechain interaction