   08
pair.xyz   00
    C   3.017000e+001   2.066200e+001   2.454800e+001
    C   3.018900e+001   2.064800e+001   2.302200e+001
    H   2.924200e+001   2.108600e+001   2.493100e+001
    H   3.022900e+001   1.963500e+001   2.491000e+001
    H   3.102800e+001   2.120200e+001   2.493800e+001
    H   2.932700e+001   2.008200e+001   2.268100e+001
    H   3.012267e+001   2.167435e+001   2.263186e+001
    H   3.110496e+001   2.015263e+001   2.266755e+001
=== === ===

sidechain-sidechain interaction