   12
pair.xyz   00
    C   3.257800e+001   2.361800e+001   2.492200e+001
    C   3.297300e+001   2.475600e+001   2.394600e+001
    C   3.355100e+001   2.358600e+001   2.612200e+001
    O   3.126500e+001   2.380300e+001   2.543400e+001
    H   3.263700e+001   2.266500e+001   2.439600e+001
    H   3.231200e+001   2.472100e+001   2.308200e+001
    H   3.342300e+001   2.446800e+001   2.675000e+001
    H   3.334200e+001   2.270400e+001   2.672500e+001
    H   3.459200e+001   2.350900e+001   2.581300e+001
    H   3.108300e+001   2.308800e+001   2.604700e+001
    H   3.402133e+001   2.458682e+001   2.365899e+001
    H   3.280270e+001   2.571593e+001   2.445544e+001
=== === ===

sidechain-sidechain interaction