   09
pair.xyz   00
    C   1.881000e+001  -4.773000e+000   3.567900e+001
    C   1.851900e+001  -4.804000e+000   3.716700e+001
    O   1.804700e+001  -3.849000e+000   3.775600e+001
    N   1.884800e+001  -5.916000e+000   3.778500e+001
    H   1.810000e+001  -5.434000e+000   3.518900e+001
    H   1.981400e+001  -5.163000e+000   3.550600e+001
    H   1.869300e+001  -5.974000e+000   3.877900e+001
    H   1.926400e+001  -6.682000e+000   3.727800e+001
    H   1.872977e+001  -3.753608e+000   3.527354e+001
=== === ===

sidechain-sidechain interaction