   15
pair.xyz   00
    C   1.941500e+001   4.621000e+000   3.230600e+001
    C   1.925600e+001   6.444000e+000   3.056600e+001
    C   1.951400e+001   6.069000e+000   3.188600e+001
    C   1.933000e+001   7.786000e+000   3.018200e+001
    C   1.984500e+001   7.061000e+000   3.281900e+001
    C   1.966500e+001   8.766000e+000   3.111800e+001
    C   1.992400e+001   8.403000e+000   3.243800e+001
    H   1.899200e+001   5.691000e+000   2.983900e+001
    H   1.912500e+001   8.069000e+000   2.915800e+001
    H   1.938100e+001   3.978000e+000   3.142500e+001
    H   1.847100e+001   4.503000e+000   3.284000e+001
    H   2.001600e+001   6.816000e+000   3.385600e+001
    H   1.972200e+001   9.805000e+000   3.082000e+001
    H   2.017600e+001   9.160000e+000   3.316900e+001
    H   2.023329e+001   4.292247e+000   3.296351e+001
=== === ===

sidechain-sidechain interaction