   11
pair.xyz   00
    C   1.594000e+001   6.724000e+000   3.225900e+001
    C   1.483600e+001   5.961000e+000   3.151900e+001
    C   1.540800e+001   7.940000e+000   3.303000e+001
    H   1.645600e+001   6.053000e+000   3.294600e+001
    H   1.666600e+001   7.074000e+000   3.152400e+001
    H   1.428400e+001   6.643000e+000   3.087300e+001
    H   1.472500e+001   7.609000e+000   3.381000e+001
    H   1.414854e+001   5.499926e+000   3.224344e+001
    H   1.525592e+001   5.199086e+000   3.084583e+001
    H   1.624311e+001   8.470124e+000   3.351121e+001
    H   1.486903e+001   8.610125e+000   3.234411e+001
=== === ===

sidechain-sidechain interaction