   12
pair.xyz   00
    C   2.055500e+001   4.163000e+000   3.322200e+001
    C   2.042400e+001   4.170000e-001   3.386200e+001
    C   2.021300e+001   2.834000e+000   3.388800e+001
    O   1.958000e+001   2.801000e+000   3.494800e+001
    N   2.064100e+001   1.731000e+000   3.327700e+001
    H   2.068100e+001   4.875000e+000   3.403500e+001
    H   2.107600e+001   1.807000e+000   3.236200e+001
    H   1.937200e+001   2.820000e-001   3.411800e+001
    H   2.149911e+001   4.077788e+000   3.266398e+001
    H   1.973671e+001   4.491753e+000   3.256449e+001
    H   2.073365e+001  -3.736887e-001   3.316277e+001
    H   2.102633e+001   3.657838e-001   3.478101e+001
=== === ===

backbone-sidechain interaction