   08
pair.xyz   00
    C   1.529800e+001  -3.488000e+000   6.599800e+001
    C   1.610600e+001  -4.752000e+000   6.563400e+001
    H   1.492900e+001  -3.559000e+000   6.702300e+001
    H   1.592000e+001  -2.598000e+000   6.590900e+001
    H   1.445300e+001  -3.351000e+000   6.532200e+001
    H   1.639200e+001  -4.668000e+000   6.458300e+001
    H   1.549909e+001  -5.662727e+000   6.574461e+001
    H   1.702564e+001  -4.812691e+000   6.623448e+001
=== === ===

sidechain-sidechain interaction