   15
pair.xyz   00
    C   4.420700e+001   5.143400e+001   4.462300e+001
    C   4.419900e+001   4.944100e+001   4.618600e+001
    C   4.460200e+001   5.075300e+001   4.590600e+001
    C   4.457500e+001   4.882000e+001   4.737700e+001
    C   4.538700e+001   5.143100e+001   4.684000e+001
    C   4.536000e+001   4.950700e+001   4.830300e+001
    C   4.576700e+001   5.081300e+001   4.803400e+001
    H   4.362000e+001   4.885500e+001   4.549200e+001
    H   4.427200e+001   4.780200e+001   4.757400e+001
    H   4.508700e+001   5.162000e+001   4.401300e+001
    H   4.379300e+001   5.240700e+001   4.489700e+001
    H   4.570600e+001   5.244600e+001   4.664100e+001
    H   4.565100e+001   4.902600e+001   4.922700e+001
    H   4.637400e+001   5.134900e+001   4.875200e+001
    H   4.344950e+001   5.089529e+001   4.403479e+001
=== === ===

sidechain-sidechain interaction