   15
pair.xyz   00
    C   3.723000e+001   5.119500e+001   4.856000e+001
    C   4.062300e+001   4.929600e+001   4.671000e+001
    C   3.963300e+001   4.852200e+001   4.731600e+001
    C   4.049700e+001   5.068400e+001   4.668700e+001
    C   3.852500e+001   4.913800e+001   4.790100e+001
    C   3.938400e+001   5.129500e+001   4.727100e+001
    C   3.839300e+001   5.052800e+001   4.788400e+001
    H   4.147900e+001   4.881600e+001   4.626100e+001
    H   3.970700e+001   4.744800e+001   4.733300e+001
    H   4.126300e+001   5.129300e+001   4.622600e+001
    H   3.777900e+001   4.852200e+001   4.837000e+001
    H   3.930200e+001   5.237100e+001   4.725300e+001
    H   3.637800e+001   5.053300e+001   4.852000e+001
    H   3.696600e+001   5.209600e+001   4.800500e+001
    H   3.742428e+001   5.146267e+001   4.960910e+001
=== === ===

sidechain-sidechain interaction