   08
pair.xyz   00
    C   8.320000e-001   4.915000e+000   7.392200e+001
    C  -2.470000e-001   3.870000e+000   7.354500e+001
    H   5.040000e-001   5.917000e+000   7.364600e+001
    H   1.034000e+000   4.889000e+000   7.499100e+001
    H   1.774000e+000   4.696000e+000   7.341800e+001
    H   1.250000e-001   2.866000e+000   7.375900e+001
    H  -4.745608e-001   3.950400e+000   7.247180e+001
    H  -1.153960e+000   4.065114e+000   7.413606e+001
=== === ===

sidechain-sidechain interaction