   08
pair.xyz   00
    C   2.169600e+001   1.083060e+002   3.139900e+001
    C   2.189200e+001   1.091510e+002   3.012000e+001
    H   2.151000e+001   1.089500e+002   3.225500e+001
    H   2.084000e+001   1.076460e+002   3.127000e+001
    H   2.258700e+001   1.077080e+002   3.158800e+001
    H   2.099100e+001   1.097290e+002   2.992800e+001
    H   2.275125e+001   1.098272e+002   3.024035e+001
    H   2.212324e+001   1.085130e+002   2.925426e+001
=== === ===

sidechain-sidechain interaction