   12
pair.xyz   00
    C   7.608000e+000  -1.032300e+001  -5.333000e+000
    C   7.204000e+000  -1.075200e+001  -9.135000e+000
    C   7.939000e+000  -1.035300e+001  -6.832000e+000
    O   9.121000e+000  -1.030500e+001  -7.200000e+000
    N   6.939000e+000  -1.048500e+001  -7.705000e+000
    H   6.639000e+000  -9.821000e+000  -5.238000e+000
    H   5.987000e+000  -1.050400e+001  -7.359000e+000
    H   7.856000e+000  -1.162800e+001  -9.186000e+000
    H   7.539941e+000  -1.136707e+001  -4.993454e+000
    H   8.364088e+000  -9.754870e+000  -4.771254e+000
    H   6.278819e+000  -1.102008e+001  -9.666201e+000
    H   7.769914e+000  -9.942529e+000  -9.619250e+000
=== === ===

backbone-sidechain interaction