   08
pair.xyz   00
    C   1.629100e+001  -8.762000e+000  -6.516000e+000
    C   1.655000e+001  -8.062000e+000  -7.835000e+000
    H   1.717700e+001  -9.318000e+000  -6.206000e+000
    H   1.606300e+001  -8.022000e+000  -5.749000e+000
    H   1.544400e+001  -9.444000e+000  -6.612000e+000
    H   1.566500e+001  -7.490000e+000  -8.091000e+000
    H   1.673330e+001  -8.817400e+000  -8.613313e+000
    H   1.739242e+001  -7.358917e+000  -7.757512e+000
=== === ===

sidechain-sidechain interaction