   14
pair.xyz   00
    C   1.281300e+001  -7.232000e+000  -5.825000e+000
    C   1.145000e+001  -7.219000e+000  -6.516000e+000
    C   1.372200e+001  -6.038000e+000  -6.277000e+000
    C   1.266600e+001  -7.223000e+000  -4.314000e+000
    H   1.332700e+001  -8.155000e+000  -6.083000e+000
    H   1.092300e+001  -6.307000e+000  -6.226000e+000
    H   1.087900e+001  -8.067000e+000  -6.136000e+000
    H   1.321200e+001  -5.096000e+000  -6.103000e+000
    H   1.465600e+001  -6.052000e+000  -5.713000e+000
    H   1.395300e+001  -6.125000e+000  -7.337000e+000
    H   1.206300e+001  -8.071000e+000  -3.992000e+000
    H   1.365200e+001  -7.292000e+000  -3.849000e+000
    H   1.218400e+001  -6.299000e+000  -3.990000e+000
    H   1.146218e+001  -7.278466e+000  -7.614324e+000
=== === ===

sidechain-sidechain interaction