   22
pair.xyz   00
    C   7.592000e+000   2.092300e+001   8.672000e+000
    C   6.466000e+000   2.027500e+001   7.869000e+000
    C   1.075400e+001   1.907300e+001   9.654000e+000
    C   6.318000e+000   2.108200e+001   1.224900e+001
    C   7.089000e+000   2.148600e+001   9.988000e+000
    C   9.760000e+000   2.022200e+001   9.528000e+000
    O   6.963000e+000   2.269600e+001   1.013100e+001
    O   1.001200e+001   2.133600e+001   9.969000e+000
    N   8.620000e+000   1.993200e+001   8.923000e+000
    N   6.804000e+000   2.061800e+001   1.095700e+001
    H   8.008000e+000   2.174700e+001   8.093000e+000
    H   8.491000e+000   1.899100e+001   8.568000e+000
    H   6.063000e+000   1.942000e+001   8.413000e+000
    H   6.890000e+000   1.962000e+001   1.078400e+001
    H   1.148700e+001   1.935500e+001   1.041200e+001
    H   5.433000e+000   2.170700e+001   1.210300e+001
    H   5.654692e+000   2.099648e+001   7.692251e+000
    H   6.847808e+000   1.993044e+001   6.896631e+000
    H   1.025953e+001   1.814346e+001   9.972510e+000
    H   1.128119e+001   1.895299e+001   8.696052e+000
    H   6.047509e+000   2.020654e+001   1.285761e+001
    H   7.077305e+000   2.169378e+001   1.275810e+001
=== === ===

backbone-sidechain interaction