   12
pair.xyz   00
    C   3.503400e+001   1.151000e+001   2.327400e+001
    C   3.171800e+001   1.313600e+001   2.238700e+001
    C   3.398100e+001   1.259000e+001   2.308600e+001
    O   3.420000e+001   1.375200e+001   2.342600e+001
    N   3.283100e+001   1.220500e+001   2.253600e+001
    H   3.460400e+001   1.057600e+001   2.290900e+001
    H   3.270200e+001   1.123500e+001   2.227400e+001
    H   3.212100e+001   1.413100e+001   2.219000e+001
    H   3.596952e+001   1.175142e+001   2.274815e+001
    H   3.525096e+001   1.136272e+001   2.434229e+001
    H   3.109226e+001   1.287091e+001   2.152203e+001
    H   3.111234e+001   1.313239e+001   2.330524e+001
=== === ===

backbone-sidechain interaction