   08
pair.xyz   00
    C   9.645000e+000   2.479700e+001   9.349000e+000
    C   9.677000e+000   2.505200e+001   1.085100e+001
    H   8.753000e+000   2.423800e+001   9.066000e+000
    H   9.630000e+000   2.576000e+001   8.841000e+000
    H   1.052700e+001   2.423200e+001   9.049000e+000
    H   1.059900e+001   2.558000e+001   1.109900e+001
    H   9.655719e+000   2.408903e+001   1.138227e+001
    H   8.828797e+000   2.568471e+001   1.115139e+001
=== === ===

sidechain-sidechain interaction