   14
pair.xyz   00
    C   2.747200e+001  -6.262000e+000   1.116700e+001
    C   2.742500e+001  -6.313000e+000   1.269400e+001
    C   2.884300e+001  -5.726000e+000   1.073600e+001
    C   2.720900e+001  -7.649000e+000   1.057900e+001
    H   2.669400e+001  -5.609000e+000   1.080200e+001
    H   2.791200e+001  -5.414000e+000   1.307500e+001
    H   2.804100e+001  -7.153000e+000   1.302000e+001
    H   2.963500e+001  -6.359000e+000   1.113700e+001
    H   2.889700e+001  -5.719000e+000   9.647000e+000
    H   2.897800e+001  -4.707000e+000   1.110400e+001
    H   2.623400e+001  -8.013000e+000   1.090100e+001
    H   2.722000e+001  -7.591000e+000   9.491000e+000
    H   2.798200e+001  -8.346000e+000   1.090400e+001
    H   2.645130e+001  -6.382756e+000   1.320099e+001
=== === ===

sidechain-sidechain interaction