   11
pair.xyz   00
    C   2.665300e+001  -2.840000e+000   9.842000e+000
    C   2.639800e+001  -1.619000e+000   1.072000e+001
    C   2.597600e+001  -2.762000e+000   8.487000e+000
    H   2.772500e+001  -3.003000e+000   9.720000e+000
    H   2.621700e+001  -3.686000e+000   1.035700e+001
    H   2.531900e+001  -1.556000e+000   1.088700e+001
    H   2.489900e+001  -2.683000e+000   8.618000e+000
    H   2.632100e+001  -1.877000e+000   7.953000e+000
    H   2.675858e+001  -7.059282e-001   1.022373e+001
    H   2.685333e+001  -1.783383e+000   1.170775e+001
    H   2.621705e+001  -3.644403e+000   7.876050e+000
=== === ===

sidechain-sidechain interaction