   12
pair.xyz   00
    C   1.384200e+001   2.075100e+001   2.743100e+001
    C   1.395100e+001   2.043500e+001   2.382600e+001
    C   1.292900e+001   1.936000e+001   2.545300e+001
    C   1.369700e+001   2.033600e+001   2.600500e+001
    N   1.310300e+001   1.944500e+001   2.408900e+001
    N   1.433200e+001   2.098700e+001   2.497100e+001
    H   1.265300e+001   1.886000e+001   2.339400e+001
    H   1.427400e+001   2.074300e+001   2.283700e+001
    H   1.228400e+001   1.867300e+001   2.598600e+001
    H   1.470600e+001   2.140900e+001   2.753900e+001
    H   1.405100e+001   1.983800e+001   2.798900e+001
    H   1.294386e+001   2.124812e+001   2.782624e+001
=== === ===

backbone-sidechain interaction