   08
pair.xyz   00
    C   1.374300e+001   1.067200e+001   3.092500e+001
    C   1.262900e+001   1.017100e+001   3.002400e+001
    H   1.455500e+001   9.948000e+000   3.099700e+001
    H   1.410400e+001   1.161000e+001   3.053100e+001
    H   1.329100e+001   1.081600e+001   3.190000e+001
    H   1.202800e+001   1.102200e+001   2.970800e+001
    H   1.198930e+001   9.422172e+000   3.051394e+001
    H   1.306905e+001   9.712003e+000   2.912641e+001
=== === ===

sidechain-sidechain interaction