   08
pair.xyz   00
    C   2.043400e+001   1.900400e+001   1.492500e+001
    C   2.149700e+001   1.964900e+001   1.403100e+001
    H   1.989500e+001   1.974500e+001   1.550500e+001
    H   1.973400e+001   1.842300e+001   1.432100e+001
    H   2.091200e+001   1.832900e+001   1.563200e+001
    H   2.222800e+001   1.889400e+001   1.373900e+001
    H   2.200149e+001   2.046692e+001   1.456626e+001
    H   2.101475e+001   2.004329e+001   1.312437e+001
=== === ===

sidechain-sidechain interaction