   11
pair.xyz   00
    C   6.550000e+000   1.523700e+001   3.534300e+001
    C   6.889000e+000   1.665300e+001   3.493800e+001
    C   6.125000e+000   1.451600e+001   3.407400e+001
    H   5.773000e+000   1.521600e+001   3.610900e+001
    H   7.451000e+000   1.475900e+001   3.573000e+001
    H   5.981000e+000   1.725800e+001   3.495200e+001
    H   7.641000e+000   1.708900e+001   3.559600e+001
    H   6.441000e+000   1.347300e+001   3.413400e+001
    H   7.253795e+000   1.657153e+001   3.390345e+001
    H   6.707638e+000   1.505528e+001   3.331262e+001
    H   5.036626e+000   1.454106e+001   3.391647e+001
=== === ===

sidechain-sidechain interaction