   19
pair.xyz   00
    C   1.057500e+001   1.251800e+001   3.692100e+001
    C   8.694000e+000   1.285200e+001   3.863600e+001
    C   9.612000e+000   1.199800e+001   3.794900e+001
    C   7.930000e+000   1.209900e+001   3.954800e+001
    C   9.391000e+000   1.075400e+001   3.844400e+001
    C   8.467000e+000   1.424000e+001   3.855300e+001
    C   7.534000e+000   1.493400e+001   3.929600e+001
    C   6.789000e+000   1.418000e+001   4.018400e+001
    C   7.010000e+000   1.283300e+001   4.024700e+001
    N   8.377000e+000   1.082400e+001   3.940400e+001
    H   9.069000e+000   1.480300e+001   3.785200e+001
    H   7.395000e+000   1.600400e+001   3.919500e+001
    H   6.033000e+000   1.464800e+001   4.080500e+001
    H   1.110200e+001   1.335200e+001   3.738700e+001
    H   1.001700e+001   1.292200e+001   3.607600e+001
    H   9.912000e+000   9.847000e+000   3.815300e+001
    H   8.029000e+000   1.001900e+001   3.991400e+001
    H   6.399000e+000   1.227800e+001   4.094600e+001
    H   1.132551e+001   1.178846e+001   3.658262e+001
=== === ===

sidechain-sidechain interaction