   09
pair.xyz   00
    C   1.270200e+001   1.453600e+001   3.143200e+001
    C   1.266800e+001   1.399000e+001   3.280500e+001
    O   1.191400e+001   1.306200e+001   3.302600e+001
    N   1.342900e+001   1.456700e+001   3.373700e+001
    H   1.293800e+001   1.365100e+001   3.083600e+001
    H   1.273000e+001   1.561300e+001   3.146900e+001
    H   1.322500e+001   1.438200e+001   3.469800e+001
    H   1.398400e+001   1.537700e+001   3.349500e+001
    H   1.184871e+001   1.442163e+001   3.074729e+001
=== === ===

backbone-sidechain interaction