   08
pair.xyz   00
    C   3.245500e+001  -4.634000e+000   1.486700e+001
    C   3.268800e+001  -5.855000e+000   1.398400e+001
    H   3.241900e+001  -4.936000e+000   1.591500e+001
    H   3.326000e+001  -3.911000e+000   1.472500e+001
    H   3.150600e+001  -4.173000e+000   1.460600e+001
    H   3.365400e+001  -6.287000e+000   1.423400e+001
    H   3.189605e+001  -6.591916e+000   1.418342e+001
    H   3.270451e+001  -5.563478e+000   1.292346e+001
=== === ===

sidechain-sidechain interaction