   12
pair.xyz   00
    C   2.429600e+001  -6.370000e+000   6.078400e+001
    C   2.167600e+001  -7.722000e+000   5.839500e+001
    C   2.295900e+001  -6.682000e+000   6.014400e+001
    O   2.192100e+001  -6.318000e+000   6.071600e+001
    N   2.295300e+001  -7.360000e+000   5.899600e+001
    H   2.407700e+001  -6.220000e+000   6.183900e+001
    H   2.381900e+001  -7.595000e+000   5.853100e+001
    H   2.110700e+001  -6.815000e+000   5.818700e+001
    H   2.499256e+001  -7.216640e+000   6.069456e+001
    H   2.472765e+001  -5.442273e+000   6.038027e+001
    H   2.182624e+001  -8.256922e+000   5.744564e+001
    H   2.107676e+001  -8.345093e+000   5.907520e+001
=== === ===

backbone-sidechain interaction