   12
pair.xyz   00
    C   2.050900e+001   9.926000e+001   3.956100e+001
    C   2.061900e+001   9.948800e+001   3.573500e+001
    C   2.040600e+001   9.975000e+001   3.812200e+001
    O   2.000700e+001   1.008880e+002   3.792200e+001
    N   2.074900e+001   9.896100e+001   3.710400e+001
    H   2.129300e+001   9.989400e+001   3.997800e+001
    H   2.121800e+001   9.807100e+001   3.724900e+001
    H   2.102500e+001   1.004990e+002   3.571900e+001
    H   1.957212e+001   9.937804e+001   4.012521e+001
    H   2.082264e+001   9.820931e+001   3.964868e+001
    H   2.117180e+001   9.887757e+001   3.500576e+001
    H   1.957595e+001   9.967198e+001   3.543802e+001
=== === ===

backbone-sidechain interaction