   08
pair.xyz   00
    C   2.339200e+001   1.017000e+002   3.737900e+001
    C   2.321100e+001   1.024100e+002   3.868300e+001
    H   2.423600e+001   1.021330e+002   3.684700e+001
    H   2.358700e+001   1.006460e+002   3.757000e+001
    H   2.248800e+001   1.018060e+002   3.678500e+001
    H   2.411800e+001   1.022920e+002   3.927300e+001
    H   2.237300e+001   1.019550e+002   3.920700e+001
    H   2.300396e+001   1.034875e+002   3.860420e+001
=== === ===

backbone-sidechain interaction