   08
pair.xyz   00
    C   3.354100e+001  -8.055000e+000   8.100000e+000
    C   3.305900e+001  -9.012000e+000   9.196000e+000
    H   3.374500e+001  -8.606000e+000   7.179000e+000
    H   3.278900e+001  -7.295000e+000   7.892000e+000
    H   3.443800e+001  -7.525000e+000   8.414000e+000
    H   3.296700e+001  -8.449000e+000   1.012500e+001
    H   3.378272e+001  -9.828593e+000   9.335314e+000
    H   3.207710e+001  -9.435675e+000   8.938360e+000
=== === ===

sidechain-sidechain interaction