   15
pair.xyz   00
    C   2.607100e+001   9.608400e+001   3.322900e+001
    C   2.287600e+001   9.753400e+001   3.160100e+001
    C   2.419200e+001   9.743000e+001   3.211400e+001
    C   2.205700e+001   9.640700e+001   3.155500e+001
    C   2.468800e+001   9.620800e+001   3.259400e+001
    C   2.254700e+001   9.519300e+001   3.201500e+001
    C   2.385100e+001   9.509400e+001   3.253400e+001
    H   2.249300e+001   9.848200e+001   3.124300e+001
    H   2.482700e+001   9.830400e+001   3.214600e+001
    H   2.105000e+001   9.647300e+001   3.116200e+001
    H   2.191000e+001   9.432200e+001   3.197000e+001
    H   2.634100e+001   9.502600e+001   3.321400e+001
    H   2.597300e+001   9.640100e+001   3.427000e+001
    H   2.421900e+001   9.414400e+001   3.289500e+001
    H   2.687667e+001   9.663342e+001   3.272004e+001
=== === ===

sidechain-sidechain interaction