   12
pair.xyz   00
    C   2.329900e+001   1.626100e+001   1.622000e+001
    C   2.457200e+001   1.611200e+001   1.538100e+001
    C   2.204300e+001   1.586100e+001   1.547800e+001
    O   2.101400e+001   1.555600e+001   1.608300e+001
    N   2.210400e+001   1.585800e+001   1.415600e+001
    H   2.339000e+001   1.560000e+001   1.707500e+001
    H   2.318600e+001   1.727400e+001   1.659000e+001
    H   2.458900e+001   1.685100e+001   1.457700e+001
    H   2.459000e+001   1.511000e+001   1.494700e+001
    H   2.128300e+001   1.556300e+001   1.364400e+001
    H   2.295300e+001   1.608500e+001   1.366400e+001
    H   2.546974e+001   1.622819e+001   1.600595e+001
=== === ===

backbone-sidechain interaction