   08
pair.xyz   00
    C   1.986900e+001   1.134700e+001   2.521100e+001
    C   1.875100e+001   1.054400e+001   2.586200e+001
    H   1.961700e+001   1.241000e+001   2.520800e+001
    H   2.079400e+001   1.120200e+001   2.577100e+001
    H   2.004300e+001   1.100800e+001   2.418900e+001
    H   1.902000e+001   9.493000e+000   2.579800e+001
    H   1.781026e+001   1.069995e+001   2.531365e+001
    H   1.868941e+001   1.080454e+001   2.692892e+001
=== === ===

sidechain-sidechain interaction