   08
pair.xyz   00
    C   1.845100e+001  -3.789000e+000   6.612800e+001
    C   1.739400e+001  -4.837000e+000   6.647500e+001
    H   1.808900e+001  -2.785000e+000   6.634100e+001
    H   1.934400e+001  -3.970000e+000   6.672700e+001
    H   1.871000e+001  -3.862000e+000   6.507200e+001
    H   1.713600e+001  -4.734000e+000   6.753000e+001
    H   1.785700e+001  -5.815000e+000   6.635200e+001
    H   1.647436e+001  -4.776309e+000   6.587452e+001
=== === ===

sidechain-sidechain interaction