   09
pair.xyz   00
    C   2.155000e+001   1.364300e+001   2.271900e+001
    C   2.121200e+001   1.457600e+001   2.155600e+001
    O   2.212600e+001   1.430100e+001   2.381700e+001
    H   2.064100e+001   1.313500e+001   2.304300e+001
    H   2.224400e+001   1.288500e+001   2.236300e+001
    H   2.076500e+001   1.400200e+001   2.075600e+001
    H   2.150800e+001   1.495900e+001   2.416700e+001
    H   2.213228e+001   1.501949e+001   2.114808e+001
    H   2.048288e+001   1.534844e+001   2.184187e+001
=== === ===

sidechain-sidechain interaction