   11
pair.xyz   00
    C   4.233500e+001  -8.606000e+000   9.910000e+000
    C   4.259400e+001  -9.944000e+000   9.201000e+000
    C   4.243300e+001  -8.674000e+000   1.142000e+001
    H   4.306500e+001  -7.877000e+000   9.558000e+000
    H   4.134700e+001  -8.230000e+000   9.651000e+000
    H   4.189200e+001  -1.068500e+001   9.588000e+000
    H   4.345400e+001  -8.878000e+000   1.174000e+001
    H   4.213000e+001  -7.711000e+000   1.183500e+001
    H   4.175700e+001  -9.445000e+000   1.178400e+001
    H   4.242101e+001  -9.815332e+000   8.122334e+000
    H   4.361099e+001  -1.032080e+001   9.384733e+000
=== === ===

backbone-sidechain interaction