   12
pair.xyz   00
    C   3.723300e+001  -8.660000e+000   1.091900e+001
    C   3.892400e+001  -1.207000e+001   1.079300e+001
    C   3.824200e+001  -9.744000e+000   1.055300e+001
    O   3.919900e+001  -9.497000e+000   9.815000e+000
    N   3.801900e+001  -1.095400e+001   1.106000e+001
    H   3.741800e+001  -7.806000e+000   1.026900e+001
    H   3.723800e+001  -1.109100e+001   1.169500e+001
    H   3.994200e+001  -1.178700e+001   1.107200e+001
    H   3.621551e+001  -9.045504e+000   1.075743e+001
    H   3.739077e+001  -8.358679e+000   1.196510e+001
    H   3.862482e+001  -1.295752e+001   1.136989e+001
    H   3.893919e+001  -1.232176e+001   9.722305e+000
=== === ===

backbone-sidechain interaction