   16
pair.xyz   00
    C   2.312400e+001   2.144300e+001   1.932900e+001
    C   2.382600e+001   2.324700e+001   1.769800e+001
    C   2.414700e+001   2.240700e+001   1.876900e+001
    C   2.475300e+001   2.417300e+001   1.721400e+001
    C   2.601100e+001   2.426900e+001   1.780800e+001
    C   2.541500e+001   2.251300e+001   1.935100e+001
    C   2.634500e+001   2.343800e+001   1.887600e+001
    O   2.689900e+001   2.518900e+001   1.735300e+001
    H   2.284000e+001   2.321100e+001   1.725300e+001
    H   2.449300e+001   2.481600e+001   1.639100e+001
    H   2.220400e+001   2.199500e+001   1.949800e+001
    H   2.346800e+001   2.109800e+001   2.030500e+001
    H   2.567700e+001   2.189700e+001   2.019800e+001
    H   2.653400e+001   2.570900e+001   1.663300e+001
    H   2.732100e+001   2.352200e+001   1.933000e+001
    H   2.289548e+001   2.056269e+001   1.871027e+001
=== === ===

sidechain-sidechain interaction