   08
pair.xyz   00
    C   1.242800e+001  -7.943000e+000   7.117300e+001
    C   1.262900e+001  -6.745000e+000   7.024900e+001
    H   1.322100e+001  -8.672000e+000   7.100200e+001
    H   1.246300e+001  -7.608000e+000   7.220900e+001
    H   1.145700e+001  -8.403000e+000   7.099100e+001
    H   1.179500e+001  -6.059000e+000   7.035900e+001
    H   1.272321e+001  -7.068619e+000   6.920191e+001
    H   1.354376e+001  -6.209723e+000   7.054344e+001
=== === ===

sidechain-sidechain interaction