   08
pair.xyz   00
    C   3.962000e+001  -4.841000e+000   2.575000e+000
    C   3.870400e+001  -3.617000e+000   2.649000e+000
    H   4.003600e+001  -5.061000e+000   3.559000e+000
    H   3.905900e+001  -5.706000e+000   2.217000e+000
    H   4.043800e+001  -4.642000e+000   1.881000e+000
    H   3.833600e+001  -3.422000e+000   1.639000e+000
    H   3.927550e+001  -2.745066e+000   2.999882e+000
    H   3.783042e+001  -3.841512e+000   3.278641e+000
=== === ===

sidechain-sidechain interaction