   06
pair.xyz   00
    C   5.103300e+001  -9.153000e+000   1.520400e+001
    O   5.160000e+001  -8.931000e+000   1.392300e+001
    H   5.214900e+001  -9.696000e+000   1.369700e+001
    H   5.182900e+001  -9.260000e+000   1.594500e+001
    H   5.045600e+001  -1.008200e+001   1.519500e+001
    H   5.037337e+001  -8.323602e+000   1.549893e+001
=== === ===

backbone-sidechain interaction