   08
pair.xyz   00
    C   4.625700e+001  -7.132000e+000   1.099100e+001
    C   4.574100e+001  -6.124000e+000   1.201800e+001
    H   4.622100e+001  -8.145000e+000   1.138900e+001
    H   4.561600e+001  -7.103000e+000   1.011100e+001
    H   4.727400e+001  -6.889000e+000   1.069300e+001
    H   4.474100e+001  -6.427000e+000   1.231900e+001
    H   4.640529e+001  -6.098919e+000   1.289441e+001
    H   4.567671e+001  -5.122021e+000   1.156866e+001
=== === ===

backbone-sidechain interaction