   16
pair.xyz   00
    C   3.109000e+000  -5.436000e+000   7.603100e+001
    C   3.543000e+000  -7.763000e+000   7.525500e+001
    C   3.262000e+000  -6.442000e+000   7.494300e+001
    C   3.666000e+000  -8.711000e+000   7.423500e+001
    C   3.040000e+000  -6.073000e+000   7.361000e+001
    C   3.434000e+000  -8.329000e+000   7.291100e+001
    C   3.120000e+000  -7.011000e+000   7.258300e+001
    O   3.508000e+000  -9.288000e+000   7.195100e+001
    H   3.561000e+000  -8.059000e+000   7.629300e+001
    H   3.875000e+000  -9.746000e+000   7.446500e+001
    H   3.514000e+000  -4.482000e+000   7.569100e+001
    H   3.684000e+000  -5.751000e+000   7.690000e+001
    H   2.788000e+000  -5.051000e+000   7.337900e+001
    H   2.938000e+000  -6.720000e+000   7.155800e+001
    H   3.330000e+000  -8.942000e+000   7.107100e+001
    H   2.051420e+000  -5.302998e+000   7.630272e+001
=== === ===

sidechain-sidechain interaction