   18
pair.xyz   00
    C   3.489300e+001  -1.391000e+000   2.740000e+000
    C   3.446800e+001  -1.270000e+000   1.292000e+000
    C   3.249100e+001  -1.512000e+000   2.570000e+000
    C   3.460100e+001  -5.930000e-001   5.633000e+000
    C   3.340200e+001  -8.160000e-001   4.712000e+000
    O   3.226100e+001  -5.900000e-001   5.132000e+000
    N   3.362200e+001  -1.275000e+000   3.468000e+000
    H   3.532900e+001  -2.367000e+000   2.914000e+000
    H   3.559600e+001  -5.980000e-001   2.981000e+000
    H   3.519200e+001  -1.735000e+000   6.220000e-001
    H   3.431700e+001  -2.210000e-001   1.032000e+000
    H   3.196600e+001  -5.730000e-001   2.386000e+000
    H   3.417700e+001  -6.330000e-001   6.634000e+000
    H   3.350637e+001  -1.804078e+000   1.286893e+000
    H   3.296635e+001  -1.865444e+000   1.643111e+000
    H   3.179276e+001  -2.258520e+000   2.976407e+000
    H   3.538500e+001  -1.362675e+000   5.578723e+000
    H   3.503399e+001   4.043811e-001   5.466411e+000
=== === ===

backbone-sidechain interaction