   08
pair.xyz   00
    C   3.797500e+001   4.003500e+001   5.198700e+001
    C   3.765500e+001   3.938800e+001   5.064800e+001
    H   3.843100e+001   4.101300e+001   5.183200e+001
    H   3.705200e+001   4.018000e+001   5.254900e+001
    H   3.864400e+001   3.939600e+001   5.256400e+001
    H   3.704300e+001   4.007200e+001   5.006100e+001
    H   3.858522e+001   3.915994e+001   5.010699e+001
    H   3.708704e+001   3.845920e+001   5.080533e+001
=== === ===

sidechain-sidechain interaction