   08
pair.xyz   00
    C   1.995700e+001   1.565200e+001   3.402000e+000
    C   1.923100e+001   1.660100e+001   2.471000e+000
    H   2.100600e+001   1.592900e+001   3.504000e+000
    H   1.949600e+001   1.567900e+001   4.390000e+000
    H   1.989600e+001   1.463700e+001   3.011000e+000
    H   1.819700e+001   1.626700e+001   2.371000e+000
    H   1.971904e+001   1.656474e+001   1.485858e+000
    H   1.921946e+001   1.760590e+001   2.918263e+000
=== === ===

backbone-sidechain interaction