   08
pair.xyz   00
    C   5.575000e+000  -5.760000e-001   7.618800e+001
    C   5.943000e+000  -1.160000e-001   7.759800e+001
    H   4.563000e+000  -2.510000e-001   7.594100e+001
    H   6.260000e+000  -1.720000e-001   7.545000e+001
    H   5.633000e+000  -1.659000e+000   7.611800e+001
    H   6.934000e+000  -5.010000e-001   7.783900e+001
    H   5.213065e+000  -5.014631e-001   7.832506e+001
    H   5.966717e+000   9.828701e-001   7.764184e+001
=== === ===

sidechain-sidechain interaction