   16
pair.xyz   00
    C  -1.020000e-001  -2.483000e+000   7.392200e+001
    C   3.658000e+000  -2.294000e+000   7.361300e+001
    C   3.869000e+000  -2.723000e+000   7.231200e+001
    C   2.382000e+000  -2.231000e+000   7.410500e+001
    C   1.282000e+000  -2.596000e+000   7.333400e+001
    C   2.782000e+000  -3.114000e+000   7.150100e+001
    C   1.480000e+000  -3.053000e+000   7.203000e+001
    O   5.153000e+000  -2.821000e+000   7.188000e+001
    H   4.497000e+000  -2.009000e+000   7.421900e+001
    H   2.232000e+000  -1.893000e+000   7.512300e+001
    H   2.945000e+000  -3.470000e+000   7.049300e+001
    H   5.170000e+000  -3.251000e+000   7.102400e+001
    H  -5.200000e-002  -2.791000e+000   7.495900e+001
    H  -7.220000e-001  -3.220000e+000   7.342800e+001
    H   6.390000e-001  -3.364000e+000   7.143200e+001
    H  -5.431090e-001  -1.481001e+000   7.381513e+001
=== === ===

sidechain-sidechain interaction