   12
pair.xyz   00
    C   2.712100e+001   4.147500e+001   5.066300e+001
    C   2.945600e+001   3.886000e+001   4.921100e+001
    C   2.837000e+001   4.088200e+001   5.003300e+001
    O   2.932100e+001   4.160100e+001   4.971500e+001
    N   2.836800e+001   3.956600e+001   4.986700e+001
    H   2.646100e+001   4.065000e+001   5.092500e+001
    H   2.753700e+001   3.903700e+001   5.011500e+001
    H   3.025500e+001   3.953800e+001   4.893100e+001
    H   2.737565e+001   4.206667e+001   5.155467e+001
    H   2.659073e+001   4.210084e+001   4.993010e+001
    H   2.988129e+001   3.808799e+001   4.986912e+001
    H   2.899374e+001   3.838979e+001   4.833053e+001
=== === ===

backbone-sidechain interaction