   11
pair.xyz   00
    C   3.834500e+001  -1.249000e+000   1.896000e+001
    C   3.935300e+001  -1.431000e+000   1.782100e+001
    C   3.867100e+001  -2.096000e+000   2.018600e+001
    H   3.833600e+001  -1.970000e-001   1.925100e+001
    H   3.734900e+001  -1.516000e+000   1.862900e+001
    H   4.030800e+001  -1.003000e+000   1.813900e+001
    H   3.863800e+001  -3.147000e+000   1.990800e+001
    H   3.967300e+001  -1.848000e+000   2.054100e+001
    H   3.900092e+001  -8.957149e-001   1.692685e+001
    H   3.952788e+001  -2.503419e+000   1.764973e+001
    H   3.794530e+001  -1.924864e+000   2.099474e+001
=== === ===

backbone-sidechain interaction