   12
pair.xyz   00
    C   3.527700e+001   2.954000e+000   1.723000e+001
    C   3.461200e+001  -7.660000e-001   1.769000e+001
    C   3.555100e+001   1.466000e+000   1.741800e+001
    O   3.670700e+001   1.039000e+000   1.747100e+001
    N   3.448300e+001   6.730000e-001   1.749900e+001
    H   3.622000e+001   3.436000e+000   1.696700e+001
    H   3.355800e+001   1.076000e+000   1.739200e+001
    H   3.521700e+001  -9.230000e-001   1.858200e+001
    H   3.454516e+001   3.137337e+000   1.642950e+001
    H   3.492548e+001   3.382600e+000   1.818012e+001
    H   3.361833e+001  -1.211934e+000   1.784414e+001
    H   3.511794e+001  -1.243832e+000   1.683812e+001
=== === ===

backbone-sidechain interaction