   15
pair.xyz   00
    C   2.421400e+001   3.235700e+001   2.382800e+001
    C   2.388700e+001   3.155000e+001   2.752400e+001
    C   2.401700e+001   3.016200e+001   2.752200e+001
    C   2.396200e+001   3.225600e+001   2.632500e+001
    C   2.416800e+001   3.158900e+001   2.511800e+001
    C   2.422600e+001   2.948500e+001   2.632000e+001
    C   2.430400e+001   3.019600e+001   2.512200e+001
    H   2.372300e+001   3.207900e+001   2.844700e+001
    H   2.395400e+001   2.961000e+001   2.845100e+001
    H   2.384300e+001   3.332800e+001   2.632500e+001
    H   2.432900e+001   2.840900e+001   2.631800e+001
    H   2.526100e+001   3.244800e+001   2.353500e+001
    H   2.381400e+001   3.335700e+001   2.399600e+001
    H   2.450000e+001   2.964500e+001   2.421600e+001
    H   2.364869e+001   3.187872e+001   2.301456e+001
=== === ===

sidechain-sidechain interaction