   08
pair.xyz   00
    C   2.990700e+001   9.035500e+001   4.141800e+001
    C   2.846200e+001   9.003400e+001   4.186600e+001
    H   3.041200e+001   8.944000e+001   4.111000e+001
    H   2.988700e+001   9.105000e+001   4.057900e+001
    H   3.045600e+001   9.080600e+001   4.224600e+001
    H   2.790400e+001   8.959800e+001   4.103600e+001
    H   2.846200e+001   8.933369e+001   4.271427e+001
    H   2.798875e+001   9.098410e+001   4.215469e+001
=== === ===

sidechain-sidechain interaction