   12
pair.xyz   00
    C   2.734400e+001   8.682500e+001   2.909400e+001
    C   2.833600e+001   9.000600e+001   2.722000e+001
    C   2.782700e+001   8.824000e+001   2.880000e+001
    O   2.812500e+001   8.898200e+001   2.973000e+001
    N   2.787900e+001   8.865000e+001   2.754000e+001
    H   2.642300e+001   8.698000e+001   2.965900e+001
    H   2.766000e+001   8.801700e+001   2.678100e+001
    H   2.938800e+001   9.010100e+001   2.748500e+001
    H   2.714440e+001   8.619597e+001   2.821396e+001
    H   2.806606e+001   8.629703e+001   2.973422e+001
    H   2.821763e+001   9.018070e+001   2.614043e+001
    H   2.784360e+001   9.080642e+001   2.779173e+001
=== === ===

backbone-sidechain interaction