   16
pair.xyz   00
    C   3.671600e+001   2.171800e+001   4.366000e+000
    C   4.018700e+001   2.127000e+001   5.898000e+000
    C   3.988500e+001   2.081600e+001   7.180000e+000
    C   3.917700e+001   2.156100e+001   5.003000e+000
    C   3.782900e+001   2.139700e+001   5.354000e+000
    C   3.855600e+001   2.064400e+001   7.558000e+000
    C   3.754000e+001   2.094900e+001   6.654000e+000
    O   4.089800e+001   2.054600e+001   8.039000e+000
    H   4.122100e+001   2.139200e+001   5.608000e+000
    H   3.943600e+001   2.190400e+001   4.010000e+000
    H   3.831900e+001   2.030200e+001   8.555000e+000
    H   4.059100e+001   2.041400e+001   8.955000e+000
    H   3.715600e+001   2.198500e+001   3.404000e+000
    H   3.619200e+001   2.259900e+001   4.742000e+000
    H   3.651100e+001   2.085100e+001   6.970000e+000
    H   3.598955e+001   2.090591e+001   4.215049e+000
=== === ===

backbone-sidechain interaction