   12
pair.xyz   00
    C   4.320800e+001   2.430000e+001   7.809000e+000
    C   3.942900e+001   2.437700e+001   8.114000e+000
    C   4.174500e+001   2.445700e+001   7.421000e+000
    O   4.141000e+001   2.478000e+001   6.289000e+000
    N   4.085000e+001   2.421200e+001   8.378000e+000
    H   4.379600e+001   2.475100e+001   7.003000e+000
    H   4.116500e+001   2.391200e+001   9.290000e+000
    H   3.915600e+001   2.379600e+001   7.229000e+000
    H   4.343531e+001   2.479799e+001   8.763113e+000
    H   4.346626e+001   2.323348e+001   7.885388e+000
    H   3.885022e+001   2.399139e+001   8.966247e+000
    H   3.916567e+001   2.542670e+001   7.917046e+000
=== === ===

backbone-sidechain interaction