   09
pair.xyz   00
    C   2.963700e+001   8.258100e+001   3.528900e+001
    C   2.821700e+001   8.300100e+001   3.501000e+001
    O   2.795700e+001   8.412200e+001   3.458800e+001
    N   2.728900e+001   8.208200e+001   3.518400e+001
    H   2.995500e+001   8.189800e+001   3.450400e+001
    H   2.966200e+001   8.205600e+001   3.624500e+001
    H   2.632300e+001   8.231200e+001   3.501300e+001
    H   2.755100e+001   8.115500e+001   3.548800e+001
    H   3.032042e+001   8.343778e+001   3.538317e+001
=== === ===

sidechain-sidechain interaction