   09
pair.xyz   00
    C   2.431300e+001   8.187200e+001   4.225400e+001
    C   2.228400e+001   8.052900e+001   4.361400e+001
    S   2.281100e+001   8.221600e+001   4.321600e+001
    H   2.406300e+001   8.127600e+001   4.137800e+001
    H   2.475300e+001   8.280600e+001   4.193500e+001
    H   2.502800e+001   8.132900e+001   4.287200e+001
    H   2.147800e+001   8.057300e+001   4.434600e+001
    H   2.312800e+001   7.998800e+001   4.404500e+001
    H   2.192290e+001   7.995713e+001   4.274649e+001
=== === ===

backbone-sidechain interaction