   12
pair.xyz   00
    C   2.624600e+001   8.522000e+001   3.878800e+001
    C   2.824300e+001   8.286900e+001   4.104400e+001
    C   2.667900e+001   8.440400e+001   4.001100e+001
    O   2.599600e+001   8.438000e+001   4.103000e+001
    N   2.783900e+001   8.375400e+001   3.994700e+001
    H   2.536900e+001   8.576900e+001   3.913700e+001
    H   2.843900e+001   8.382000e+001   3.912900e+001
    H   2.737500e+001   8.234500e+001   4.143700e+001
    H   2.705542e+001   8.588472e+001   3.845187e+001
    H   2.595822e+001   8.455703e+001   3.795875e+001
    H   2.897609e+001   8.213376e+001   4.068069e+001
    H   2.868202e+001   8.335882e+001   4.192567e+001
=== === ===

backbone-sidechain interaction