   11
pair.xyz   00
    C   2.623800e+001   8.424500e+001   4.502600e+001
    C   2.561000e+001   8.519000e+001   4.402800e+001
    C   2.515000e+001   8.429300e+001   4.615700e+001
    H   2.720200e+001   8.462200e+001   4.537400e+001
    H   2.636100e+001   8.324200e+001   4.462100e+001
    H   2.633900e+001   8.559000e+001   4.332600e+001
    H   2.480100e+001   8.470000e+001   4.347900e+001
    H   2.545900e+001   8.391100e+001   4.713100e+001
    H   2.426500e+001   8.374600e+001   4.582200e+001
    H   2.520190e+001   8.598751e+001   4.466631e+001
    H   2.491140e+001   8.536492e+001   4.622077e+001
=== === ===

backbone-sidechain interaction