   12
pair.xyz   00
    C   3.372200e+001   3.533100e+001   5.628500e+001
    C   3.751400e+001   3.516500e+001   5.653600e+001
    C   3.516400e+001   3.495300e+001   5.596400e+001
    O   3.542700e+001   3.419600e+001   5.503400e+001
    N   3.610600e+001   3.548100e+001   5.674200e+001
    H   3.306500e+001   3.460500e+001   5.580800e+001
    H   3.583400e+001   3.612400e+001   5.747900e+001
    H   3.779200e+001   3.539700e+001   5.550900e+001
    H   3.354882e+001   3.528336e+001   5.737024e+001
    H   3.350297e+001   3.634355e+001   5.591517e+001
    H   3.815526e+001   3.572271e+001   5.723439e+001
    H   3.768653e+001   3.408722e+001   5.667244e+001
=== === ===

backbone-sidechain interaction