   09
pair.xyz 0
    C   2.532200e+001   9.175700e+001   4.658800e+001
    C   2.520100e+001   9.084300e+001   4.782600e+001
    S   2.700400e+001   9.240000e+001   4.636700e+001
    H   2.506800e+001   9.121200e+001   4.568000e+001
    H   2.466800e+001   9.261900e+001   4.668700e+001
    H   2.566200e+001   9.134500e+001   4.867800e+001
    H   2.673700e+001   9.310900e+001   4.526400e+001
    H   2.571796e+001   8.988885e+001   4.764616e+001
    H   2.415490e+001   9.071260e+001   4.814012e+001
=== === ===

sidechain-sidechain interaction
