   08
pair.xyz   00
    C   2.911800e+001   3.530900e+001   1.373700e+001
    C   3.006300e+001   3.582500e+001   1.267700e+001
    H   2.867300e+001   3.613300e+001   1.429600e+001
    H   2.832000e+001   3.474200e+001   1.325700e+001
    H   2.963400e+001   3.462900e+001   1.440600e+001
    H   2.943400e+001   3.619700e+001   1.186800e+001
    H   3.065100e+001   3.500300e+001   1.227100e+001
    H   3.070321e+001   3.665943e+001   1.299926e+001
=== === ===

sidechain-sidechain interaction