   16
pair.xyz   00
    C   2.688800e+001   3.113300e+001   9.927000e+000
    C   2.642900e+001   3.473100e+001   1.101900e+001
    C   2.701200e+001   3.354500e+001   1.058400e+001
    C   2.508000e+001   3.478800e+001   1.125000e+001
    C   2.624600e+001   3.239500e+001   1.041200e+001
    C   2.429700e+001   3.364100e+001   1.110800e+001
    C   2.488400e+001   3.245100e+001   1.067300e+001
    O   2.455000e+001   3.598000e+001   1.165700e+001
    H   2.704100e+001   3.561100e+001   1.115400e+001
    H   2.807300e+001   3.349000e+001   1.040500e+001
    H   2.522000e+001   3.666800e+001   1.172300e+001
    H   2.324100e+001   3.368800e+001   1.132700e+001
    H   2.630300e+001   3.028400e+001   1.028100e+001
    H   2.787400e+001   3.105500e+001   1.039000e+001
    H   2.427300e+001   3.156800e+001   1.054600e+001
    H   2.700712e+001   3.105311e+001   8.836391e+000
=== === ===

sidechain-sidechain interaction