   08
pair.xyz   00
    C   2.102900e+001   8.850400e+001   4.743000e+001
    C   2.142400e+001   8.805000e+001   4.882400e+001
    H   2.192400e+001   8.874400e+001   4.685600e+001
    H   2.048000e+001   8.771300e+001   4.692500e+001
    H   2.040000e+001   8.938400e+001   4.751500e+001
    H   2.207100e+001   8.717500e+001   4.874700e+001
    H   2.198261e+001   8.885892e+001   4.931756e+001
    H   2.050824e+001   8.778087e+001   4.937076e+001
=== === ===

sidechain-sidechain interaction