   15
pair.xyz   00
    C   4.091400e+001   2.664400e+001   1.399600e+001
    C   3.786100e+001   2.532600e+001   1.577900e+001
    C   3.870400e+001   2.579900e+001   1.478200e+001
    C   3.832100e+001   2.519300e+001   1.707300e+001
    C   4.001000e+001   2.615700e+001   1.508700e+001
    C   3.962400e+001   2.554400e+001   1.738500e+001
    C   4.045200e+001   2.604700e+001   1.640100e+001
    H   3.683800e+001   2.506100e+001   1.554700e+001
    H   3.833900e+001   2.591100e+001   1.377300e+001
    H   3.766000e+001   2.481800e+001   1.784000e+001
    H   3.998000e+001   2.545800e+001   1.840200e+001
    H   4.165800e+001   2.732500e+001   1.441400e+001
    H   4.030500e+001   2.722100e+001   1.329700e+001
    H   4.144300e+001   2.636700e+001   1.666500e+001
    H   4.142081e+001   2.582437e+001   1.346557e+001
=== === ===

backbone-sidechain interaction