   15
pair.xyz   00
    C   3.258900e+001   2.277700e+001   2.410700e+001
    C   3.236200e+001   2.051300e+001   2.514700e+001
    C   3.178700e+001   2.154800e+001   2.442400e+001
    C   3.166400e+001   1.934800e+001   2.540000e+001
    C   3.047300e+001   2.142300e+001   2.397700e+001
    C   3.036400e+001   1.923800e+001   2.498400e+001
    C   2.976300e+001   2.025800e+001   2.424600e+001
    H   3.337700e+001   2.060600e+001   2.551000e+001
    H   3.212700e+001   1.854300e+001   2.595400e+001
    H   3.237800e+001   2.306000e+001   2.307400e+001
    H   3.365600e+001   2.255700e+001   2.416600e+001
    H   3.000900e+001   2.221600e+001   2.340700e+001
    H   2.980500e+001   1.833900e+001   2.520500e+001
    H   2.874200e+001   2.015000e+001   2.390900e+001
    H   3.234866e+001   2.363289e+001   2.475484e+001
=== === ===

sidechain-sidechain interaction