   12
pair.xyz   00
    C   1.557800e+001   8.109600e+001   3.873700e+001
    C   1.398000e+001   7.937800e+001   3.983800e+001
    C   1.437500e+001   8.021200e+001   3.883900e+001
    C   1.240200e+001   7.940000e+001   3.829800e+001
    N   1.274500e+001   7.889500e+001   3.948300e+001
    N   1.337000e+001   8.020100e+001   3.788200e+001
    H   1.445900e+001   7.909600e+001   4.076200e+001
    H   1.218900e+001   7.825800e+001   4.003600e+001
    H   1.589000e+001   8.134600e+001   3.974800e+001
    H   1.525200e+001   8.200600e+001   3.822900e+001
    H   1.150500e+001   7.923200e+001   3.771100e+001
    H   1.638723e+001   8.068021e+001   3.811873e+001
=== === ===

backbone-sidechain interaction