   08
pair.xyz   00
    C   4.281100e+001   1.880700e+001   2.758100e+001
    C   4.233300e+001   2.021800e+001   2.796500e+001
    H   4.374200e+001   1.886600e+001   2.701200e+001
    H   4.297700e+001   1.820900e+001   2.847800e+001
    H   4.205400e+001   1.831600e+001   2.696800e+001
    H   4.143900e+001   2.013300e+001   2.858700e+001
    H   4.210325e+001   2.078821e+001   2.705282e+001
    H   4.312061e+001   2.073900e+001   2.852912e+001
=== === ===

sidechain-sidechain interaction