   08
pair.xyz   00
    C   2.454200e+001   8.948300e+001   3.299200e+001
    C   2.586400e+001   8.875600e+001   3.256100e+001
    H   2.442000e+001   9.041800e+001   3.244200e+001
    H   2.368100e+001   8.884800e+001   3.279400e+001
    H   2.457500e+001   8.970900e+001   3.404800e+001
    H   2.581700e+001   8.851800e+001   3.149400e+001
    H   2.674171e+001   8.939124e+001   3.275100e+001
    H   2.597036e+001   8.782415e+001   3.313575e+001
=== === ===

sidechain-sidechain interaction