   12
pair.xyz   00
    C   3.048100e+001   9.247700e+001   3.152200e+001
    C   2.941300e+001   9.562600e+001   2.963800e+001
    C   3.036500e+001   9.394300e+001   3.107400e+001
    O   3.100400e+001   9.484100e+001   3.163600e+001
    N   2.952700e+001   9.423200e+001   3.007800e+001
    H   3.085400e+001   9.249400e+001   3.254800e+001
    H   2.900700e+001   9.351100e+001   2.958400e+001
    H   3.041800e+001   9.601500e+001   2.946700e+001
    H   2.950655e+001   9.196754e+001   3.149185e+001
    H   3.120460e+001   9.192968e+001   3.090004e+001
    H   2.883449e+001   9.571528e+001   2.870668e+001
    H   2.897097e+001   9.625665e+001   3.042343e+001
=== === ===

backbone-sidechain interaction