   18
pair.xyz   00
    C   2.907100e+001   9.518900e+001   3.430100e+001
    C   3.050900e+001   9.491300e+001   3.479200e+001
    C   2.994100e+001   9.725600e+001   3.520500e+001
    C   2.720600e+001   9.685800e+001   3.251200e+001
    C   2.818000e+001   9.745200e+001   3.355100e+001
    O   2.815100e+001   9.865900e+001   3.377600e+001
    N   2.902300e+001   9.665400e+001   3.423300e+001
    H   2.887100e+001   9.474900e+001   3.332600e+001
    H   2.832700e+001   9.482700e+001   3.501600e+001
    H   3.124100e+001   9.502800e+001   3.399000e+001
    H   3.061900e+001   9.392700e+001   3.523900e+001
    H   2.935200e+001   9.778400e+001   3.595300e+001
    H   2.679300e+001   9.775800e+001   3.206200e+001
    H   3.061849e+001   9.571333e+001   3.553865e+001
    H   3.045420e+001   9.639712e+001   3.566212e+001
    H   3.062884e+001   9.796526e+001   3.472144e+001
    H   2.764495e+001   9.623274e+001   3.172056e+001
    H   2.640033e+001   9.630858e+001   3.302096e+001
=== === ===

backbone-sidechain interaction