   08
pair.xyz   00
    C   3.055800e+001   1.098060e+002   3.418900e+001
    C   2.969800e+001   1.108840e+002   3.355800e+001
    H   3.055500e+001   1.089200e+002   3.355900e+001
    H   3.157300e+001   1.101700e+002   3.429600e+001
    H   3.016300e+001   1.095570e+002   3.517000e+001
    H   3.008900e+001   1.111470e+002   3.257600e+001
    H   2.866961e+001   1.105072e+002   3.345595e+001
    H   2.972462e+001   1.117697e+002   3.420984e+001
=== === ===

sidechain-sidechain interaction