   12
pair.xyz   00
    C   3.078200e+001   2.672800e+001   1.710900e+001
    C   3.268200e+001   2.448900e+001   1.954700e+001
    C   3.106900e+001   2.588300e+001   1.834600e+001
    O   3.022900e+001   2.581300e+001   1.924400e+001
    N   3.220900e+001   2.520600e+001   1.836900e+001
    H   3.021000e+001   2.759400e+001   1.744600e+001
    H   3.281100e+001   2.523400e+001   1.756000e+001
    H   3.224900e+001   2.491300e+001   2.045300e+001
    H   3.169809e+001   2.706332e+001   1.660073e+001
    H   3.015738e+001   2.616043e+001   1.640351e+001
    H   3.245905e+001   2.341236e+001   1.951320e+001
    H   3.377597e+001   2.459949e+001   1.957898e+001
=== === ===

backbone-sidechain interaction