   08
pair.xyz   00
    C   3.952200e+001   1.691100e+001   2.814200e+001
    C   3.833500e+001   1.595500e+001   2.822400e+001
    H   4.034400e+001   1.654500e+001   2.876000e+001
    H   3.986400e+001   1.698600e+001   2.711000e+001
    H   3.922800e+001   1.790700e+001   2.847300e+001
    H   3.748600e+001   1.640400e+001   2.771500e+001
    H   3.804493e+001   1.572367e+001   2.925954e+001
    H   3.859036e+001   1.502075e+001   2.770249e+001
=== === ===

sidechain-sidechain interaction