   06
pair.xyz   00
    C   4.625300e+001   3.423400e+001   2.658700e+001
    O   4.585900e+001   3.418100e+001   2.795400e+001
    H   4.661500e+001   3.444400e+001   2.849300e+001
    H   4.705900e+001   3.351500e+001   2.642900e+001
    H   4.539284e+001   3.396399e+001   2.595674e+001
    H   4.662600e+001   3.523928e+001   2.634147e+001
=== === ===

backbone-sidechain interaction