   08
pair.xyz   00
    C   4.383800e+001   3.268400e+001   3.074500e+001
    C   4.297600e+001   3.380900e+001   3.131000e+001
    H   4.330000e+001   3.173600e+001   3.078200e+001
    H   4.409100e+001   3.290600e+001   2.970800e+001
    H   4.476000e+001   3.259900e+001   3.132100e+001
    H   4.355900e+001   3.473100e+001   3.126600e+001
    H   4.272573e+001   3.359600e+001   3.235976e+001
    H   4.207990e+001   3.395476e+001   3.068891e+001
=== === ===

backbone-sidechain interaction