   11
pair.xyz   00
    C   6.343000e+000   9.978300e+001   5.193500e+001
    C   4.955000e+000   9.937900e+001   5.141600e+001
    C   6.474000e+000   9.949000e+001   5.343700e+001
    H   7.101000e+000   9.922500e+001   5.139000e+001
    H   6.491000e+000   1.008490e+002   5.176100e+001
    H   4.202000e+000   9.977300e+001   5.210100e+001
    H   6.226000e+000   9.844400e+001   5.362500e+001
    H   7.504000e+000   9.967100e+001   5.374000e+001
    H   4.865481e+000   9.828371e+001   5.136786e+001
    H   4.727496e+000   9.984684e+001   5.044679e+001
    H   5.804371e+000   1.001366e+002   5.402311e+001
=== === ===

sidechain-sidechain interaction