   14
pair.xyz   00
    C   1.074400e+001   1.019160e+002   5.344300e+001
    C   1.177600e+001   1.027430e+002   5.422200e+001
    C   1.043800e+001   1.006220e+002   5.425900e+001
    C   9.491000e+000   1.027510e+002   5.317200e+001
    H   1.115100e+001   1.016490e+002   5.246900e+001
    H   1.135000e+001   1.029900e+002   5.519800e+001
    H   1.003500e+001   1.008850e+002   5.523900e+001
    H   9.713000e+000   1.000080e+002   5.372600e+001
    H   1.135200e+001   1.000400e+002   5.439500e+001
    H   9.755000e+000   1.036310e+002   5.258400e+001
    H   8.771000e+000   1.021540e+002   5.261400e+001
    H   9.051000e+000   1.030660e+002   5.411700e+001
    H   1.205182e+001   1.036506e+002   5.366512e+001
    H   1.267315e+001   1.021361e+002   5.441384e+001
=== === ===

sidechain-sidechain interaction