   11
pair.xyz   00
    C   9.240000e+000   9.517700e+001   5.429900e+001
    C   8.159000e+000   9.484100e+001   5.328200e+001
    C   9.171000e+000   9.661600e+001   5.483200e+001
    H   9.081000e+000   9.448300e+001   5.512300e+001
    H   1.022100e+001   9.500200e+001   5.385900e+001
    H   7.183000e+000   9.497900e+001   5.374500e+001
    H   9.219000e+000   9.731800e+001   5.399800e+001
    H   8.261910e+000   9.379437e+001   5.295955e+001
    H   8.194672e+000   9.548600e+001   5.239166e+001
    H   8.219788e+000   9.674965e+001   5.536803e+001
    H   1.004151e+001   9.682652e+001   5.547066e+001
=== === ===

sidechain-sidechain interaction