   08
pair.xyz   01
    C   2.853300e+001   3.078800e+001   6.268300e+001
    N   2.835100e+001   3.134200e+001   6.405300e+001
    H   2.881700e+001   3.223100e+001   6.414600e+001
    H   2.872100e+001   3.070400e+001   6.474500e+001
    H   2.736100e+001   3.147100e+001   6.424400e+001
    H   2.958400e+001   3.053000e+001   6.253800e+001
    H   2.793125e+001   2.987606e+001   6.255549e+001
    H   2.825283e+001   3.152742e+001   6.191830e+001
=== === ===

backbone-sidechain interaction
