   09
pair.xyz   00
    C   2.830600e+001   4.150800e+001   2.473000e+000
    C   2.778300e+001   4.225600e+001   3.665000e+000
    O   2.853700e+001   4.280500e+001   4.476000e+000
    N   2.645800e+001   4.222400e+001   3.804000e+000
    H   2.605500e+001   4.271000e+001   4.593000e+000
    H   2.587900e+001   4.174900e+001   3.108000e+000
    H   2.771300e+001   4.178900e+001   1.601000e+000
    H   2.813000e+001   4.044700e+001   2.620000e+000
    H   2.936952e+001   4.169306e+001   2.261613e+000
=== === ===

sidechain-sidechain interaction