   12
pair.xyz   00
    C   3.236100e+001   6.947000e+000   2.719700e+001
    C   3.219400e+001   5.956000e+000   2.834300e+001
    C   3.369400e+001   6.744000e+000   2.655100e+001
    O   3.424100e+001   7.689000e+000     26
    N   3.416500e+001   5.507000e+000   2.664300e+001
    H   3.160100e+001   6.877000e+000   2.642000e+001
    H   3.240000e+001   7.900000e+000   2.763100e+001
    H   3.214400e+001   6.603000e+000   2.922100e+001
    H   3.300600e+001   5.281000e+000   2.860400e+001
    H   3.507000e+001   5.313000e+000   2.623500e+001
    H   3.364400e+001   4.771000e+000   2.708700e+001
    H   3.124674e+001   5.398233e+000   2.830311e+001
=== === ===

sidechain-sidechain interaction