   12
pair.xyz   00
    C   3.197600e+001  -7.463000e+000   5.342300e+001
    C   2.874800e+001  -6.843000e+000   5.536600e+001
    C   3.048800e+001  -7.336000e+000   5.374400e+001
    O   2.962300e+001  -7.557000e+000   5.288500e+001
    N   3.016000e+001  -6.967000e+000   5.497800e+001
    H   3.207000e+001  -7.444000e+000   5.233500e+001
    H   3.088700e+001  -6.837000e+000   5.567100e+001
    H   2.821100e+001  -7.740000e+000   5.506900e+001
    H   3.253676e+001  -6.620363e+000   5.385371e+001
    H   3.236437e+001  -8.423173e+000   5.379345e+001
    H   2.863932e+001  -6.731445e+000   5.645492e+001
    H   2.826552e+001  -6.000459e+000   5.484895e+001
=== === ===

backbone-sidechain interaction