   08
pair.xyz   00
    C  -5.270000e+000   9.076000e+000   4.397600e+001
    C  -6.219000e+000   7.915000e+000   4.367700e+001
    H  -4.551000e+000   8.792000e+000   4.474600e+001
    H  -4.737000e+000   9.373000e+000   4.307600e+001
    H  -5.822000e+000   9.956000e+000   4.430300e+001
    H  -6.960000e+000   8.246000e+000   4.294700e+001
    H  -6.730651e+000   7.586081e+000   4.459353e+001
    H  -5.659966e+000   7.056815e+000   4.327575e+001
=== === ===

sidechain-sidechain interaction