   12
pair.xyz   00
    C   1.591200e+001  -7.294000e+000  -1.899900e+001
    C   1.733000e+001  -4.490000e+000  -2.117800e+001
    C   1.650500e+001  -5.706000e+000  -2.077500e+001
    O   1.577900e+001  -6.262000e+000  -2.160600e+001
    N   1.662600e+001  -6.132000e+000  -1.952400e+001
    H   1.730200e+001  -5.684000e+000  -1.891300e+001
    H   1.524700e+001  -7.708000e+000  -1.975300e+001
    H   1.672800e+001  -3.977000e+000  -2.192800e+001
    H   1.662378e+001  -8.079883e+000  -1.870616e+001
    H   1.532050e+001  -6.982301e+000  -1.812552e+001
    H   1.755036e+001  -3.801108e+000  -2.034922e+001
    H   1.825776e+001  -4.811979e+000  -2.167357e+001
=== === ===

backbone-sidechain interaction