   07
pair.xyz  -01
    C   7.253000e+000  -1.307400e+001   1.873100e+001
    C   6.844000e+000  -1.371700e+001   2.005100e+001
    O   7.016000e+000  -1.488200e+001   2.027300e+001
    O   6.352000e+000  -1.301200e+001   2.094900e+001
    H   7.888000e+000  -1.221900e+001   1.895900e+001
    H   6.361000e+000  -1.270900e+001   1.821600e+001
    H   7.809611e+000  -1.373070e+001   1.804622e+001
=== === ===

sidechain-sidechain interaction