   13
pair.xyz   01
    C  -5.709000e+000   9.194000e+001   3.157200e+001
    C  -3.417000e+000   9.230700e+001   3.240500e+001
    N  -2.970000e+000   9.248200e+001   3.116400e+001
    N  -4.707000e+000   9.206000e+001   3.264300e+001
    N  -2.552000e+000   9.235200e+001   3.338300e+001
    H  -3.610000e+000   9.242000e+001   3.038300e+001
    H  -1.991000e+000   9.267000e+001   3.099000e+001
    H  -5.022000e+000   9.197700e+001   3.360400e+001
    H  -2.858000e+000   9.219900e+001   3.433200e+001
    H  -1.574000e+000   9.254900e+001   3.317900e+001
    H  -5.880000e+000   9.088400e+001   3.137000e+001
    H  -5.324000e+000   9.242000e+001   3.067400e+001
    H  -6.679108e+000   9.240337e+001   3.180477e+001
=== === ===

sidechain-sidechain interaction