   07
pair.xyz  -01
    C   1.047400e+001   3.861300e+001  -3.429200e+001
    C   9.519000e+000   3.746900e+001  -3.460900e+001
    O   9.584000e+000   3.638200e+001  -3.399200e+001
    O   8.636000e+000   3.768300e+001  -3.546400e+001
    H   9.930000e+000   3.956000e+001  -3.429000e+001
    H   1.120700e+001   3.868800e+001  -3.509600e+001
    H   1.099041e+001   3.849985e+001  -3.332736e+001
=== === ===

backbone-sidechain interaction