   10
pair.xyz  -01
    C   5.465000e+000   7.420000e-001   1.614300e+001
    C   6.453000e+000   1.217000e+000   1.509700e+001
    C   4.237000e+000   1.900000e-002   1.563000e+001
    O   3.750000e+000   1.810000e-001   1.450000e+001
    O   3.682000e+000  -7.660000e-001   1.643400e+001
    H   5.995000e+000   9.400000e-002   1.684600e+001
    H   5.143000e+000   1.607000e+000   1.671900e+001
    H   7.268000e+000   1.744000e+000   1.559000e+001
    H   5.942000e+000   1.941000e+000   1.446200e+001
    H   6.888639e+000   4.301094e-001   1.446374e+001
=== === ===

sidechain-sidechain interaction