   07
pair.xyz  -01
    C   2.740000e+000  -2.117000e+001  -5.734000e+000
    C   2.045000e+000  -2.237300e+001  -6.343000e+000
    O   1.668000e+000  -2.330700e+001  -5.595000e+000
    O   1.854000e+000  -2.236300e+001  -7.577000e+000
    H   2.032000e+000  -2.076700e+001  -5.020000e+000
    H   2.944000e+000  -2.039900e+001  -6.471000e+000
    H   3.677493e+000  -2.145169e+001  -5.232243e+000
=== === ===

sidechain-sidechain interaction