   09
pair.xyz   00
    C   3.950300e+001   1.803500e+001   3.523500e+001
    C   3.833700e+001   1.872000e+001   3.452400e+001
    O   3.743200e+001   1.924400e+001   3.516900e+001
    N   3.833200e+001   1.871900e+001   3.319900e+001
    H   3.751100e+001   1.912000e+001   3.275400e+001
    H   3.907000e+001   1.832300e+001   3.263500e+001
    H   3.927200e+001   1.697900e+001   3.533700e+001
    H   3.958200e+001   1.844900e+001   3.624100e+001
    H   4.046535e+001   1.817095e+001   3.471984e+001
=== === ===

sidechain-sidechain interaction