   12
pair.xyz   00
    C   2.264200e+001   2.047900e+001   1.087200e+001
    C   2.051500e+001   2.349400e+001   1.164000e+001
    C   2.226000e+001   2.186700e+001   1.132200e+001
    O   2.311800e+001   2.264900e+001   1.174000e+001
    N   2.097800e+001   2.217100e+001   1.125200e+001
    H   2.252800e+001   2.040500e+001   9.790000e+000
    H   2.199700e+001   1.974200e+001   1.135500e+001
    H   2.030900e+001   2.149300e+001   1.091100e+001
    H   2.111200e+001   2.387700e+001   1.246900e+001
    H   2.060400e+001   2.418400e+001   1.080200e+001
    H   2.369240e+001   2.032840e+001   1.116179e+001
    H   1.945989e+001   2.346030e+001   1.194921e+001
=== === ===

backbone-sidechain interaction