   13
pair.xyz   01
    C  -1.943900e+001  -3.830000e-001   2.882400e+001
    C  -1.897000e+001  -2.285000e+000   3.031200e+001
    N  -1.898300e+001  -1.754000e+000   2.909500e+001
    N  -1.853000e+001  -3.506000e+000   3.051100e+001
    N  -1.943000e+001  -1.585000e+000   3.133400e+001
    H  -1.866500e+001  -2.330000e+000   2.831600e+001
    H  -2.031300e+001  -1.300000e-001   2.942600e+001
    H  -1.974200e+001  -3.100000e-001   2.777700e+001
    H  -1.810100e+001  -3.979000e+000   2.971300e+001
    H  -1.837600e+001  -3.844000e+000   3.144300e+001
    H  -1.989500e+001  -7.130000e-001   3.116300e+001
    H  -1.947100e+001  -2.009000e+000   3.224700e+001
    H  -1.863198e+001   3.400883e-001   2.901338e+001
=== === ===

sidechain-sidechain interaction