   07
pair.xyz  -01
    C   2.353600e+001   2.879300e+001  -2.941000e+000
    C   2.390900e+001   2.997100e+001  -3.833000e+000
    O   2.417000e+001   3.107300e+001  -3.303000e+000
    O   2.392300e+001   2.979800e+001  -5.072000e+000
    H   2.401700e+001   2.788200e+001  -3.302000e+000
    H   2.245600e+001   2.865000e+001  -3.009000e+000
    H   2.380360e+001   2.895944e+001  -1.887108e+000
=== === ===

backbone-sidechain interaction