   12
pair.xyz   00
    C   4.566000e+000   1.082500e+001   2.464000e+001
    C   2.913000e+000   1.018000e+001   2.797000e+001
    C   3.135000e+000   1.074000e+001   2.657600e+001
    O   2.222000e+000   1.133400e+001   2.599100e+001
    N   4.321000e+000   1.049700e+001   2.603700e+001
    H   5.029000e+000   9.993000e+000   2.656900e+001
    H   4.311000e+000   1.187300e+001   2.446900e+001
    H   3.881000e+000   9.990000e+000   2.843700e+001
    H   5.631669e+000   1.067711e+001   2.441092e+001
    H   3.956754e+000   1.018685e+001   2.398305e+001
    H   2.334002e+000   1.089492e+001   2.857303e+001
    H   2.342372e+000   9.239801e+000   2.794975e+001
=== === ===

backbone-sidechain interaction