   18
pair.xyz   00
    C   9.694000e+000   2.356700e+001   1.854700e+001
    C   1.005800e+001   2.253900e+001   1.960900e+001
    C   1.019700e+001   2.491800e+001   1.887600e+001
    C   1.152900e+001   2.524100e+001   1.866300e+001
    C   9.344000e+000   2.584100e+001   1.944700e+001
    C   1.200400e+001   2.651000e+001   1.902000e+001
    C   9.804000e+000   2.708300e+001   1.979900e+001
    C   1.112500e+001   2.742700e+001   1.960000e+001
    H   1.009900e+001   2.326600e+001   1.758500e+001
    H   8.609000e+000   2.359200e+001   1.844800e+001
    H   1.113900e+001   2.256800e+001   1.975200e+001
    H   1.220200e+001   2.451700e+001   1.822500e+001
    H   8.309000e+000   2.558900e+001   1.963000e+001
    H   1.304100e+001   2.677300e+001   1.886000e+001
    H   9.127000e+000   2.780000e+001   2.024200e+001
    H   1.147800e+001   2.840900e+001   1.988700e+001
    H   9.778304e+000   2.152586e+001   1.928446e+001
    H   9.590464e+000   2.280117e+001   2.056956e+001
=== === ===

sidechain-sidechain interaction