   10
pair.xyz  -01
    C   7.277000e+000   2.498000e+001   1.627300e+001
    C   6.919000e+000   2.618500e+001   1.540700e+001
    C   6.108000e+000   2.401800e+001   1.645800e+001
    O   4.925000e+000   2.441500e+001   1.627800e+001
    O   6.367000e+000   2.286300e+001   1.684700e+001
    H   8.135000e+000   2.445800e+001   1.584400e+001
    H   7.561000e+000   2.535000e+001   1.725800e+001
    H   5.983000e+000   2.660900e+001   1.577300e+001
    H   6.791873e+000   2.587097e+001   1.436047e+001
    H   7.684198e+000   2.696672e+001   1.552268e+001
=== === ===

sidechain-sidechain interaction