   07
pair.xyz  -01
    C   1.134700e+001   3.138300e+001   2.724300e+001
    C   1.010800e+001   3.119700e+001   2.639600e+001
    O   1.009400e+001   3.160300e+001   2.521800e+001
    O   9.152000e+000   3.062700e+001   2.696500e+001
    H   1.150900e+001   3.050000e+001   2.786300e+001
    H   1.116900e+001   3.223000e+001   2.790900e+001
    H   1.225684e+001   3.158607e+001   2.665908e+001
=== === ===

sidechain-sidechain interaction