   12
pair.xyz   00
    C  -2.020000e-001   3.100900e+001   4.157000e+000
    C   6.900000e-002   3.064800e+001   5.627000e+000
    C  -4.820000e-001   2.976700e+001   3.329000e+000
    O  -1.330000e+000   3.187600e+001   4.069000e+000
    H   6.700000e-001   3.151900e+001   3.746000e+000
    H  -7.830000e-001   3.007800e+001   6.001000e+000
    H  -1.321000e+000   2.921300e+001   3.752000e+000
    H  -7.260000e-001   3.006100e+001   2.308000e+000
    H   3.940000e-001   2.912300e+001   3.299000e+000
    H  -9.920000e-001   3.263500e+001   3.540000e+000
    H   1.994308e-001   3.154895e+001   6.244473e+000
    H   9.630369e-001   3.001219e+001   5.707290e+000
=== === ===

sidechain-sidechain interaction