   13
pair.xyz   01
    C   8.844000e+000   1.267600e+001   1.464300e+001
    C   9.911000e+000   1.368300e+001   1.665100e+001
    N   8.887000e+000   1.448900e+001   1.686600e+001
    N   9.916000e+000   1.282900e+001   1.563700e+001
    N   1.095800e+001   1.373600e+001   1.745100e+001
    H   8.141000e+000   1.458300e+001   1.617200e+001
    H   8.898000e+000   1.513200e+001   1.763900e+001
    H   1.073900e+001   1.225200e+001   1.553200e+001
    H   1.175500e+001   1.313200e+001   1.727700e+001
    H   1.099100e+001   1.438400e+001   1.822000e+001
    H   9.202000e+000   1.307300e+001   1.369200e+001
    H   7.955000e+000   1.323700e+001   1.491400e+001
    H   8.547954e+000   1.162901e+001   1.448126e+001
=== === ===

sidechain-sidechain interaction