   10
pair.xyz  -01
    C   1.379100e+001   6.164500e+001  -3.854000e+000
    C   1.417000e+001   6.274600e+001  -2.862000e+000
    C   1.229600e+001   6.132500e+001  -3.808000e+000
    O   1.149700e+001   6.217200e+001  -3.331000e+000
    O   1.190800e+001   6.023100e+001  -4.276000e+000
    H   1.401800e+001   6.201800e+001  -4.856000e+000
    H   1.439000e+001   6.075200e+001  -3.726000e+000
    H   1.404500e+001   6.237500e+001  -1.844000e+000
    H   1.347700e+001   6.357600e+001  -3.001000e+000
    H   1.517504e+001   6.317755e+001  -2.978849e+000
=== === ===

backbone-sidechain interaction