   07
pair.xyz  -01
    C   1.604600e+001   8.964000e+000   6.051000e+000
    C   1.644200e+001   7.535000e+000   6.377000e+000
    O   1.704800e+001   7.325000e+000   7.465000e+000
    O   1.611500e+001   6.636000e+000   5.552000e+000
    H   1.673200e+001   9.635000e+000   6.565000e+000
    H   1.504600e+001   9.141000e+000   6.448000e+000
    H   1.604887e+001   9.209457e+000   4.978740e+000
=== === ===

backbone-sidechain interaction