   12
pair.xyz   00
    C   2.040600e+001   9.583000e+000   7.616000e+000
    C   1.734300e+001   9.849000e+000   9.854000e+000
    C   1.868000e+001   1.017700e+001   9.222000e+000
    O   1.922900e+001   1.124600e+001   9.473000e+000
    N   1.917000e+001   9.301000e+000   8.348000e+000
    H   1.860300e+001   8.499000e+000   8.091000e+000
    H   2.108200e+001   1.014100e+001   8.267000e+000
    H   1.700600e+001   8.884000e+000   9.481000e+000
    H   2.092700e+001   8.654716e+000   7.338794e+000
    H   2.018281e+001   1.023751e+001   6.760545e+000
    H   1.742923e+001   9.822005e+000   1.095028e+001
    H   1.662502e+001   1.061945e+001   9.536334e+000
=== === ===

backbone-sidechain interaction