   15
pair.xyz   00
    C   3.268100e+001   2.683600e+001   2.936200e+001
    C   3.257600e+001   2.465700e+001   3.246600e+001
    C   3.237600e+001   2.511400e+001   3.116300e+001
    C   3.324100e+001   2.545800e+001   3.339400e+001
    C   3.284300e+001   2.636800e+001   3.077600e+001
    C   3.370800e+001   2.671200e+001   3.301100e+001
    C   3.350600e+001   2.716600e+001   3.170600e+001
    H   3.224300e+001   2.366800e+001   3.272800e+001
    H   3.186200e+001   2.448900e+001   3.044900e+001
    H   3.342900e+001   2.509100e+001   3.439300e+001
    H   3.428900e+001   2.729200e+001   3.369900e+001
    H   3.287300e+001   2.599500e+001   2.869500e+001
    H   3.344000e+001   2.759300e+001   2.915400e+001
    H   3.390100e+001   2.812500e+001   3.140300e+001
    H   3.168963e+001   2.725164e+001   2.912869e+001
=== === ===

sidechain-sidechain interaction