   11
pair.xyz   00
    C   2.066700e+001   8.447200e+001   2.469200e+001
    C   1.998700e+001   8.577900e+001   2.438200e+001
    C   2.026600e+001   8.394300e+001   2.606300e+001
    H   2.038500e+001   8.374900e+001   2.392400e+001
    H   2.174400e+001   8.463100e+001   2.466200e+001
    H   2.017600e+001   8.649300e+001   2.517900e+001
    H   1.891800e+001   8.561000e+001   2.428000e+001
    H   1.920900e+001   8.366100e+001   2.602500e+001
    H   2.086600e+001   8.305200e+001   2.626900e+001
    H   2.041301e+001   8.615085e+001   2.343847e+001
    H   2.042299e+001   8.468815e+001   2.685679e+001
=== === ===

sidechain-sidechain interaction