   07
pair.xyz  -01
    C   8.776000e+000   1.594000e+001   4.834000e+000
    C   9.914000e+000   1.601800e+001   3.830000e+000
    O   1.110800e+001   1.596100e+001   4.203000e+000
    O   9.627000e+000   1.620100e+001   2.627000e+000
    H   8.147000e+000   1.507400e+001   4.623000e+000
    H   8.165000e+000   1.683700e+001   4.718000e+000
    H   9.136626e+000   1.589115e+001   5.872057e+000
=== === ===

backbone-sidechain interaction