   07
pair.xyz  -01
    C   1.997700e+001   1.223000e+000   3.588700e+001
    C   2.094400e+001   2.284000e+000   3.639400e+001
    O   2.208400e+001   1.968000e+000   3.675500e+001
    O   2.057900e+001   3.466000e+000   3.641300e+001
    H   2.013000e+001   1.119000e+000   3.481200e+001
    H   1.895400e+001   1.563000e+000   3.604400e+001
    H   2.013151e+001   2.381573e-001   3.635198e+001
=== === ===

sidechain-sidechain interaction