   07
pair.xyz  -01
    C   6.875000e+000   1.041740e+002   2.261600e+001
    C   5.920000e+000   1.050400e+002   2.345200e+001
    O   6.290000e+000   1.053470e+002   2.461600e+001
    O   4.809000e+000   1.054260e+002   2.297400e+001
    H   7.724000e+000   1.038750e+002   2.323000e+001
    H   7.240000e+000   1.047580e+002   2.176900e+001
    H   6.398577e+000   1.032597e+002   2.223243e+001
=== === ===

sidechain-sidechain interaction