   13
pair.xyz   01
    C   4.462000e+000   1.096140e+002   2.829500e+001
    C   4.914000e+000   1.075550e+002   2.698100e+001
    N   4.629000e+000   1.062900e+002   2.676300e+001
    N   4.298000e+000   1.081940e+002   2.796000e+001
    N   5.783000e+000   1.081930e+002   2.622400e+001
    H   3.930000e+000   1.058170e+002   2.732400e+001
    H   5.095000e+000   1.057850e+002   2.601100e+001
    H   3.671000e+000   1.076640e+002   2.855400e+001
    H   5.970000e+000   1.091710e+002   2.638800e+001
    H   6.256000e+000   1.077050e+002   2.547800e+001
    H   4.069000e+000   1.102160e+002   2.747400e+001
    H   5.522000e+000   1.098240e+002   2.842000e+001
    H   3.942143e+000   1.099109e+002   2.921784e+001
=== === ===

sidechain-sidechain interaction