   09
pair.xyz   00
    C   4.018600e+001   3.473700e+001   6.146200e+001
    C   4.102300e+001   3.585600e+001   6.208300e+001
    O   3.962300e+001   3.389300e+001   6.244500e+001
    H   3.939000e+001   3.516700e+001   6.085100e+001
    H   4.082800e+001   3.414100e+001   6.081300e+001
    H   4.145500e+001   3.644300e+001   6.127000e+001
    H   3.924800e+001   3.316400e+001   6.190100e+001
    H   4.183272e+001   3.542817e+001   6.269236e+001
    H   4.038946e+001   3.652422e+001   6.268476e+001
=== === ===

sidechain-sidechain interaction