   19
pair.xyz   00
    C   3.192400e+001   9.913000e+000   1.533700e+001
    C   3.126000e+001   1.238200e+001   1.545700e+001
    C   3.310900e+001   1.339000e+001   1.469800e+001
    C   3.214700e+001   1.137800e+001   1.521000e+001
    C   3.334000e+001     12   1.471600e+001
    C   3.408000e+001   1.429100e+001   1.429200e+001
    C   3.530000e+001   1.378400e+001   1.388100e+001
    C   3.459400e+001   1.151900e+001   1.431300e+001
    C   3.554900e+001   1.241100e+001   1.388500e+001
    N   3.183400e+001   1.358700e+001   1.515500e+001
    H   3.141000e+001   1.450400e+001   1.531800e+001
    H   3.025000e+001   1.224300e+001   1.582500e+001
    H   3.388500e+001   1.535200e+001   1.430300e+001
    H   3.132700e+001   9.718000e+000   1.622900e+001
    H   3.289200e+001   9.439000e+000   1.549900e+001
    H   3.608200e+001   1.445800e+001   1.356000e+001
    H   3.480800e+001   1.046400e+001   1.436900e+001
    H   3.652300e+001   1.204500e+001   1.359600e+001
    H   3.145960e+001   9.439988e+000   1.445917e+001
=== === ===

sidechain-sidechain interaction