   07
pair.xyz  -01
    C   3.343100e+001   2.137100e+001   1.594700e+001
    C   3.195400e+001   2.172500e+001   1.588800e+001
    O   3.109500e+001   2.081500e+001   1.589900e+001
    O   3.160800e+001   2.292200e+001   1.582900e+001
    H   3.365400e+001   2.063100e+001   1.517600e+001
    H   3.365100e+001   2.093000e+001   1.692000e+001
    H   3.409253e+001   2.223830e+001   1.580499e+001
=== === ===

sidechain-sidechain interaction