   07
pair.xyz  -01
    C   2.219800e+001   1.613200e+001   2.096100e+001
    C   2.207300e+001   1.530700e+001   1.970000e+001
    O   2.098300e+001   1.530300e+001   1.908500e+001
    O   2.308100e+001   1.465700e+001   1.934400e+001
    H   2.324900e+001   1.623200e+001   2.124500e+001
    H   2.168000e+001   1.560700e+001   2.176500e+001
    H   2.175789e+001   1.713435e+001   2.085332e+001
=== === ===

sidechain-sidechain interaction