   08
pair.xyz   01
    C   3.485900e+001  -7.845000e+000   3.167000e+000
    N   3.576900e+001  -8.893000e+000   3.692000e+000
    H   3.529300e+001  -9.767000e+000   3.902000e+000
    H   3.649900e+001  -9.117000e+000   3.013000e+000
    H   3.623400e+001  -8.591000e+000   4.541000e+000
    H   3.427000e+001  -8.245000e+000   2.335000e+000
    H   3.545000e+001  -7.005000e+000   2.790000e+000
    H   3.418144e+001  -7.472271e+000   3.949297e+000
=== === ===

sidechain-sidechain interaction