   12
pair.xyz   00
    C   1.875200e+001   2.182600e+001   8.310000e-001
    C   1.551200e+001   1.995700e+001   1.469000e+000
    C   1.727300e+001   2.157100e+001   1.089000e+000
    O   1.647100e+001   2.251900e+001   1.134000e+000
    N   1.690700e+001   2.029800e+001   1.236000e+000
    H   1.893500e+001   2.286500e+001   1.112000e+000
    H   1.759100e+001   1.956100e+001   1.125000e+000
    H   1.491000e+001   2.039600e+001   6.710000e-001
    H   1.940483e+001   2.116786e+001   1.423172e+000
    H   1.896956e+001   2.170930e+001  -2.409372e-001
    H   1.538077e+001   1.886554e+001   1.430276e+000
    H   1.513598e+001   2.036760e+001   2.417694e+000
=== === ===

backbone-sidechain interaction