   07
pair.xyz  -01
    C   4.067000e+001   1.664800e+001   1.170100e+001
    C   4.164600e+001   1.736600e+001   1.261900e+001
    O   4.231400e+001   1.830400e+001   1.215200e+001
    O   4.169100e+001   1.699700e+001   1.381400e+001
    H   3.996600e+001   1.606900e+001   1.230300e+001
    H   4.122800e+001   1.594700e+001   1.107700e+001
    H   4.010474e+001   1.733066e+001   1.104950e+001
=== === ===

sidechain-sidechain interaction