   08
pair.xyz   01
    C   3.791800e+001   3.405700e+001   6.485800e+001
    N   3.762100e+001   3.272300e+001   6.425800e+001
    H   3.745100e+001   3.276000e+001   6.324900e+001
    H   3.838800e+001   3.207900e+001   6.441300e+001
    H   3.679600e+001   3.231000e+001   6.467600e+001
    H   3.890200e+001   3.440400e+001   6.453000e+001
    H   3.795000e+001   3.396600e+001   6.594900e+001
    H   3.716603e+001   3.481329e+001   6.458862e+001
=== === ===

sidechain-sidechain interaction