   16
pair.xyz   00
    C   2.004800e+001   8.387700e+001   3.890300e+001
    C   1.752000e+001   8.655900e+001   4.115800e+001
    C   1.773700e+001   8.676400e+001   3.978800e+001
    C   1.809300e+001   8.545400e+001   4.179900e+001
    C   1.852900e+001   8.587500e+001   3.906100e+001
    C   1.888600e+001   8.456200e+001   4.105800e+001
    C   1.911200e+001   8.477200e+001   3.968500e+001
    O   1.672700e+001   8.744800e+001   4.183500e+001
    H   1.638300e+001   8.815100e+001   4.128700e+001
    H   1.729800e+001   8.761900e+001   3.929800e+001
    H   1.792400e+001   8.529400e+001   4.285500e+001
    H   1.869900e+001   8.604000e+001   3.800600e+001
    H   1.933500e+001   8.370700e+001   4.154900e+001
    H   2.035800e+001   8.304500e+001   3.953300e+001
    H   2.093400e+001   8.445300e+001   3.861800e+001
    H   1.956951e+001   8.341212e+001   3.802840e+001
=== === ===

sidechain-sidechain interaction