   07
pair.xyz  -01
    C   4.595300e+001   2.855000e+001   3.407700e+001
    C   4.622900e+001   2.708800e+001   3.403400e+001
    O   4.617800e+001   2.633500e+001   3.301200e+001
    O   4.657000e+001   2.673800e+001   3.518200e+001
    H   4.534600e+001   2.873300e+001   3.323100e+001
    H   4.694100e+001   2.889900e+001   3.380700e+001
    H   4.596792e+001   2.903534e+001   3.506403e+001
=== === ===

sidechain-sidechain interaction