   07
pair.xyz  -01
    C   4.335000e+001   2.184100e+001   3.279500e+001
    C   4.386000e+001   2.322900e+001   3.317300e+001
    O   4.508800e+001   2.347900e+001   3.317800e+001
    O   4.297600e+001   2.408300e+001   3.344900e+001
    H   4.256700e+001   2.192500e+001   3.203800e+001
    H   4.289100e+001   2.140100e+001   3.368300e+001
    H   4.412700e+001   2.114704e+001   3.244188e+001
=== === ===

sidechain-sidechain interaction