   12
pair.xyz   00
    C   8.939000e+000   2.934300e+001   1.081700e+001
    C   9.415000e+000   3.061100e+001   1.438800e+001
    C   9.291000e+000   2.963400e+001   1.322200e+001
    O   9.423000e+000   2.842600e+001   1.340600e+001
    N   9.052000e+000   3.016400e+001   1.202300e+001
    H   8.895000e+000   3.116400e+001   1.195900e+001
    H   8.197000e+000   2.856200e+001   1.098900e+001
    H   9.918000e+000   3.007800e+001   1.519900e+001
    H   8.612822e+000   2.993767e+001   9.950989e+000
    H   9.894099e+000   2.884020e+001   1.060492e+001
    H   1.001226e+001   3.148889e+001   1.410062e+001
    H   8.409246e+000   3.090491e+001   1.472277e+001
=== === ===

backbone-backbone interaction