   12
pair.xyz   00
    C   4.218700e+001  -3.978000e+000   6.335200e+001
    C   4.238000e+001  -4.856000e+000   5.970200e+001
    C   4.170000e+001  -4.220000e+000   6.194700e+001
    O   4.050800e+001  -4.061000e+000   6.162400e+001
    N   4.264300e+001  -4.634000e+000   6.110800e+001
    H   4.281000e+001  -3.080000e+000   6.335000e+001
    H   4.279200e+001  -4.829000e+000   6.367200e+001
    H   4.360000e+001  -4.720000e+000   6.143200e+001
    H   4.197600e+001  -3.940000e+000   5.926700e+001
    H   4.133681e+001  -3.841402e+000   6.403648e+001
    H   4.332936e+001  -5.088468e+000   5.919736e+001
    H   4.163670e+001  -5.652959e+000   5.955248e+001
=== === ===

backbone-backbone interaction