   12
pair.xyz   00
    C   9.991000e+000   3.432700e+001   1.038100e+001
    C   1.218800e+001   3.295600e+001   1.318000e+001
    C   1.089700e+001   3.337300e+001   1.115000e+001
    O   1.119100e+001   3.228000e+001   1.067400e+001
    N   1.132400e+001   3.378700e+001   1.234100e+001
    H   9.507000e+000   3.372500e+001   9.604000e+000
    H   1.112900e+001   3.474000e+001   1.262000e+001
    H   1.305300e+001   3.263600e+001   1.259300e+001
    H   9.216676e+000   3.476915e+001   1.102515e+001
    H   1.058295e+001   3.510840e+001   9.881990e+000
    H   1.255536e+001   3.352283e+001   1.404819e+001
    H   1.168367e+001   3.203452e+001   1.350637e+001
=== === ===

backbone-backbone interaction