   12
pair.xyz   00
    C   2.123000e+000   6.034000e+000   5.817600e+001
    C   5.130000e+000   7.224000e+000   5.616900e+001
    C   2.935000e+000   6.569000e+000   5.700700e+001
    O   2.409000e+000   6.749000e+000   5.590700e+001
    N   4.229000e+000   6.769000e+000   5.722100e+001
    H   1.158000e+000   5.696000e+000   5.779000e+001
    H   4.589000e+000   6.687000e+000   5.816500e+001
    H   4.763000e+000   8.171000e+000   5.576500e+001
    H   2.634859e+000   5.195726e+000   5.867127e+001
    H   1.950476e+000   6.853133e+000   5.888962e+001
    H   6.128297e+000   7.383264e+000   5.660263e+001
    H   5.168931e+000   6.491512e+000   5.534928e+001
=== === ===

backbone-backbone interaction