   12
pair.xyz   00
    C   3.088800e+001   5.187000e+000   2.828800e+001
    C   2.763900e+001   6.674000e+000   2.681600e+001
    C   2.869300e+001   5.666000e+000   2.728800e+001
    O   2.847900e+001   4.479000e+000   2.711700e+001
    N   2.982100e+001   6.082000e+000   2.786900e+001
    H   2.997000e+001   7.075000e+000   2.800300e+001
    H   3.099300e+001   4.377000e+000   2.756300e+001
    H   2.669500e+001   6.356000e+000   2.725700e+001
    H   3.183526e+001   5.744767e+000   2.832789e+001
    H   3.063144e+001   4.751426e+000   2.926496e+001
    H   2.788730e+001   7.693598e+000   2.714580e+001
    H   2.756989e+001   6.635844e+000   2.571884e+001
=== === ===

backbone-backbone interaction