   12
pair.xyz   00
    C   2.716000e+000   8.200000e-001   2.290400e+001
    C   3.112000e+000   3.017000e+000   2.601300e+001
    C   3.187000e+000   1.779000e+000   2.511700e+001
    O   3.726000e+000   7.410000e-001   2.551500e+001
    N   2.654000e+000   1.897000e+000   2.389800e+001
    H   2.190000e+000   2.766000e+000   2.365200e+001
    H   2.229000e+000  -7.200000e-002   2.330100e+001
    H   3.801000e+000   2.880000e+000   2.684900e+001
    H   2.219759e+000   1.112286e+000   2.196682e+001
    H   3.759077e+000   5.617556e-001   2.266884e+001
    H   3.406521e+000   3.921601e+000   2.546077e+001
    H   2.092183e+000   3.139809e+000   2.640656e+001
=== === ===

backbone-backbone interaction