   12
pair.xyz   00
    C   2.911200e+001  -9.800000e+000  -2.028100e+001
    C   2.557800e+001  -8.368000e+000  -2.010600e+001
    C   2.672100e+001  -9.368000e+000  -1.999900e+001
    O   2.653300e+001  -1.048900e+001  -1.952400e+001
    N   2.792600e+001  -8.958000e+000  -2.041500e+001
    H   2.800300e+001  -8.054000e+000  -2.087500e+001
    H   2.891000e+001  -1.079600e+001  -2.068500e+001
    H   2.482100e+001  -8.682000e+000  -1.938800e+001
    H   2.995967e+001  -9.361893e+000  -2.082828e+001
    H   2.934901e+001  -9.924665e+000  -1.921410e+001
    H   2.589071e+001  -7.337264e+000  -1.988285e+001
    H   2.513698e+001  -8.410797e+000  -2.111281e+001
=== === ===

backbone-backbone interaction