   12
pair.xyz   00
    C   1.170600e+001   2.413900e+001   9.033000e+000
    C   1.024600e+001   2.467900e+001   1.251100e+001
    C   1.067200e+001   2.398100e+001   1.122700e+001
    O   1.057100e+001   2.275700e+001   1.112700e+001
    N   1.117000e+001   2.474000e+001   1.025300e+001
    H   1.116200e+001   2.575000e+001   1.035800e+001
    H   1.095500e+001   2.347600e+001   8.605000e+000
    H   1.038200e+001   2.393400e+001   1.329600e+001
    H   1.198212e+001   2.490998e+001   8.298597e+000
    H   1.257756e+001   2.351038e+001   9.268010e+000
    H   1.086682e+001   2.555718e+001   1.274202e+001
    H   9.179637e+000   2.494613e+001   1.247212e+001
=== === ===

backbone-backbone interaction