   12
pair.xyz   00
    C   3.762000e+001   3.768400e+001   3.162100e+001
    C   4.048100e+001   3.519800e+001   3.164400e+001
    C   3.858200e+001   3.664600e+001   3.109000e+001
    O   3.849900e+001   3.623800e+001   2.993100e+001
    N   3.950500e+001   3.623600e+001   3.195200e+001
    H   3.805700e+001   3.808800e+001   3.253400e+001
    H   3.949400e+001   3.660700e+001   3.289300e+001
    H   4.034600e+001   3.483800e+001   3.062300e+001
    H   3.745091e+001   3.848681e+001   3.088826e+001
    H   3.666336e+001   3.721543e+001   3.189536e+001
    H   4.150167e+001   3.560069e+001   3.172196e+001
    H   4.033867e+001   3.434619e+001   3.232530e+001
=== === ===

backbone-backbone interaction