   12
pair.xyz   00
    C   1.158300e+001   8.711000e+000   1.909000e+001
    C   1.445600e+001   8.108000e+000   2.149600e+001
    C   1.325500e+001   8.785000e+000   2.085200e+001
    O   1.281200e+001   9.849000e+000   2.129600e+001
    N   1.272900e+001   8.163000e+000   1.979300e+001
    H   1.308500e+001   7.253000e+000   1.951600e+001
    H   1.169100e+001   9.796000e+000   1.904900e+001
    H   1.477700e+001   7.275000e+000   2.087200e+001
    H   1.156287e+001   8.313348e+000   1.806459e+001
    H   1.066508e+001   8.454703e+000   1.963931e+001
    H   1.527653e+001   8.833507e+000   2.159781e+001
    H   1.419741e+001   7.712165e+000   2.248920e+001
=== === ===

backbone-backbone interaction