   12
pair.xyz   00
    C   1.310900e+001   3.549000e+000   1.788600e+001
    C   1.618700e+001   5.782000e+000   1.829100e+001
    C   1.399600e+001   4.665000e+000   1.843100e+001
    O   1.355700e+001   5.459000e+000   1.927600e+001
    N   1.522000e+001   4.757000e+000   1.791000e+001
    H   1.370700e+001   2.879000e+000   1.726500e+001
    H   1.550700e+001   4.069000e+000   1.721700e+001
    H   1.569200e+001   6.571000e+000   1.885400e+001
    H   1.268881e+001   2.983707e+000   1.873092e+001
    H   1.230260e+001   3.977310e+000   1.727259e+001
    H   1.698114e+001   5.353238e+000   1.891990e+001
    H   1.659265e+001   6.223023e+000   1.736853e+001
=== === ===

backbone-backbone interaction