   12
pair.xyz   00
    C   2.430600e+001   2.657400e+001   2.257100e+001
    C   2.384700e+001   3.004400e+001   2.407900e+001
    C   2.357100e+001   2.884700e+001   2.318400e+001
    O   2.267700e+001   2.887700e+001   2.233300e+001
    N   2.434300e+001   2.778900e+001   2.339900e+001
    H   2.502200e+001   2.782600e+001   2.415500e+001
    H   2.385600e+001   2.681600e+001   2.161200e+001
    H   2.478600e+001   2.987900e+001   2.461300e+001
    H   2.534677e+001   2.626415e+001   2.239549e+001
    H   2.373122e+001   2.577277e+001   2.305851e+001
    H   2.392889e+001   3.093111e+001   2.343376e+001
    H   2.304992e+001   3.017203e+001   2.482617e+001
=== === ===

backbone-backbone interaction