   12
pair.xyz   00
    C   2.890800e+001   2.874300e+001   2.525600e+001
    C   2.744300e+001   2.535600e+001   2.579500e+001
    C   2.776700e+001   2.773100e+001   2.521400e+001
    O   2.660100e+001   2.809600e+001   2.531800e+001
    N   2.814400e+001   2.645300e+001   2.511000e+001
    H   2.975900e+001   2.833000e+001   2.472100e+001
    H   2.912800e+001   2.628700e+001   2.491400e+001
    H   2.636200e+001   2.550200e+001   2.573300e+001
    H   2.862468e+001   2.968614e+001   2.476587e+001
    H   2.920672e+001   2.892021e+001   2.629972e+001
    H   2.768820e+001   2.438239e+001   2.534559e+001
    H   2.775197e+001   2.537272e+001   2.685058e+001
=== === ===

backbone-backbone interaction