   12
pair.xyz   00
    C   1.370500e+001   1.277500e+001   8.182000e+000
    C   1.180400e+001   1.597000e+001   7.314000e+000
    C   1.268500e+001   1.390800e+001   8.245000e+000
    O   1.181800e+001   1.390700e+001   9.115000e+000
    N   1.276900e+001   1.487000e+001   7.323000e+000
    H   1.327700e+001   1.194700e+001   8.745000e+000
    H   1.353700e+001   1.486600e+001   6.657000e+000
    H   1.178300e+001   1.644200e+001   8.300000e+000
    H   1.387177e+001   1.245731e+001   7.142161e+000
    H   1.465626e+001   1.309042e+001   8.635456e+000
    H   1.206765e+001   1.672227e+001   6.555995e+000
    H   1.078898e+001   1.559153e+001   7.122963e+000
=== === ===

backbone-backbone interaction