   12
pair.xyz   00
    C   3.259400e+001  -4.626000e+000   5.797600e+001
    C   3.324900e+001  -3.950000e+000   5.428700e+001
    C   3.235300e+001  -4.270000e+000   5.651000e+001
    O   3.120800e+001  -4.139000e+000   5.608400e+001
    N   3.342400e+001  -4.162000e+000   5.571600e+001
    H   3.164400e+001  -4.973000e+000   5.838600e+001
    H   3.436000e+001  -4.233000e+000   5.610400e+001
    H   3.267300e+001  -3.037000e+000   5.412300e+001
    H   3.333891e+001  -5.431430e+000   5.805595e+001
    H   3.292266e+001  -3.752662e+000   5.855846e+001
    H   3.421676e+001  -3.841513e+000   5.377546e+001
    H   3.268009e+001  -4.764977e+000   5.381566e+001
=== === ===

backbone-backbone interaction