   12
pair.xyz   00
    C   2.825400e+001  -3.456000e+000   5.371400e+001
    C   2.874800e+001  -6.843000e+000   5.536600e+001
    C   2.807800e+001  -5.673000e+000   5.464800e+001
    O   2.691000e+001  -5.772000e+000   5.426300e+001
    N   2.879000e+001  -4.563000e+000   5.447700e+001
    H   2.972100e+001  -4.496000e+000   5.487400e+001
    H   2.734700e+001  -3.135000e+000   5.422400e+001
    H   2.821100e+001  -7.740000e+000   5.506900e+001
    H   2.899593e+001  -2.643884e+000   5.371543e+001
    H   2.796856e+001  -3.803990e+000   5.271029e+001
    H   2.980490e+001  -6.935816e+000   5.507558e+001
    H   2.863932e+001  -6.731445e+000   5.645492e+001
=== === ===

backbone-backbone interaction