   12
pair.xyz   00
    C   3.076000e+001  -1.396000e+001  -1.631300e+001
    C   2.717100e+001  -1.383200e+001  -1.753200e+001
    C   2.846000e+001  -1.432600e+001  -1.687900e+001
    O   2.851500e+001  -1.543500e+001  -1.635600e+001
    N   2.952300e+001  -1.352100e+001  -1.690000e+001
    H   2.948600e+001  -1.262800e+001  -1.738300e+001
    H   3.105600e+001  -1.489900e+001  -1.678600e+001
    H   2.634500e+001  -1.444100e+001  -1.715500e+001
    H   3.154992e+001  -1.322379e+001  -1.652283e+001
    H   3.066838e+001  -1.416345e+001  -1.523587e+001
    H   2.698825e+001  -1.278062e+001  -1.726514e+001
    H   2.721879e+001  -1.395002e+001  -1.862461e+001
=== === ===

backbone-backbone interaction