   12
pair.xyz   00
    C   3.807800e+001   1.959700e+001   4.874000e+000
    C   3.485000e+001   2.098500e+001   3.396000e+000
    C   3.602500e+001   2.078000e+001   4.350000e+000
    O   3.612700e+001   2.146400e+001   5.367000e+000
    N   3.691900e+001   1.985200e+001   4.025000e+000
    H   3.676800e+001   1.927200e+001   3.205000e+000
    H   3.774700e+001   1.934400e+001   5.883000e+000
    H   3.447400e+001   2.199100e+001   3.583000e+000
    H   3.867179e+001   1.876369e+001   4.470253e+000
    H   3.869929e+001   2.050194e+001   4.945272e+000
    H   3.516273e+001   2.091475e+001   2.343735e+000
    H   3.405752e+001   2.025067e+001   3.602733e+000
=== === ===

backbone-backbone interaction