   12
pair.xyz   00
    C   3.483500e+001   1.654600e+001   8.940000e-001
    C   3.813700e+001   1.817900e+001  -8.000000e-002
    C   3.613200e+001   1.734300e+001   9.900000e-001
    O   3.644800e+001   1.787600e+001   2.047000e+000
    N   3.688700e+001   1.743000e+001  -1.030000e-001
    H   3.419900e+001   1.684900e+001   1.729000e+000
    H   3.661400e+001   1.694500e+001  -9.530000e-001
    H   3.879500e+001   1.775500e+001   6.820000e-001
    H   3.430700e+001   1.675494e+001  -4.810421e-002
    H   3.506049e+001   1.547473e+001   1.001344e+000
    H   3.863620e+001   1.810614e+001  -1.057489e+000
    H   3.795638e+001   1.923392e+001   1.740152e-001
=== === ===

backbone-backbone interaction