   12
pair.xyz   00
    C   2.844500e+001   1.983200e+001  -2.521000e+000
    C   3.035800e+001   2.270700e+001  -4.168000e+000
    C   3.014500e+001   2.140600e+001  -3.377000e+000
    O   3.107000e+001   2.089900e+001  -2.726000e+000
    N   2.889900e+001   2.092600e+001  -3.369000e+000
    H   2.819700e+001   2.140400e+001  -3.924000e+000
    H   2.915000e+001   1.969500e+001  -1.712000e+000
    H   2.939700e+001   2.300300e+001  -4.592000e+000
    H   2.744773e+001   2.002179e+001  -2.097411e+000
    H   2.839896e+001   1.892883e+001  -3.147228e+000
    H   3.071296e+001   2.346858e+001  -3.458075e+000
    H   3.106423e+001   2.258081e+001  -5.001855e+000
=== === ===

backbone-backbone interaction