   12
pair.xyz   00
    C   2.503100e+001   1.786300e+001  -6.351000e+000
    C   2.821100e+001   1.635100e+001  -7.716000e+000
    C   2.673100e+001   1.663900e+001  -7.565000e+000
    O   2.588800e+001   1.616500e+001  -8.335000e+000
    N   2.639000e+001   1.743100e+001  -6.575000e+000
    H   2.711300e+001   1.777300e+001  -5.950000e+000
    H   2.436100e+001   1.721300e+001  -6.913000e+000
    H   2.875700e+001   1.673600e+001  -6.852000e+000
    H   2.477135e+001   1.770327e+001  -5.294087e+000
    H   2.484038e+001   1.887596e+001  -6.735152e+000
    H   2.843647e+001   1.527985e+001  -7.824613e+000
    H   2.860398e+001   1.682431e+001  -8.627888e+000
=== === ===

backbone-backbone interaction