   12
pair.xyz   00
    C   4.179300e+001   2.661600e+001   3.612700e+001
    C   4.261700e+001   2.949400e+001   3.381500e+001
    C   4.261100e+001   2.862800e+001   3.506200e+001
    O   4.323700e+001   2.896300e+001   3.606800e+001
    N   4.190200e+001   2.751000e+001   3.499000e+001
    H   4.139300e+001   2.727500e+001   3.414000e+001
    H   4.238800e+001   2.697700e+001   3.696900e+001
    H   4.255400e+001   2.884000e+001   3.294400e+001
    H   4.074900e+001   2.656477e+001   3.646971e+001
    H   4.214669e+001   2.560441e+001   3.587883e+001
    H   4.174610e+001   3.016590e+001   3.380592e+001
    H   4.354474e+001   3.008288e+001   3.376485e+001
=== === ===

backbone-backbone interaction