   12
pair.xyz   00
    C   3.705300e+001   2.307200e+001   8.611000e+000
    C   3.709700e+001   2.496600e+001   5.294000e+000
    C   3.693300e+001   2.468300e+001   6.784000e+000
    O   3.658600e+001   2.558600e+001   7.548000e+000
    N   3.719200e+001   2.344800e+001   7.206000e+000
    H   3.737600e+001   2.272400e+001   6.517000e+000
    H     36   2.311000e+001   8.885000e+000
    H   3.760000e+001   2.593300e+001   5.212000e+000
    H   3.742196e+001   2.204552e+001   8.753128e+000
    H   3.757469e+001   2.376855e+001   9.283801e+000
    H   3.768532e+001   2.420744e+001   4.756906e+000
    H   3.610413e+001   2.506521e+001   4.830998e+000
=== === ===

backbone-backbone interaction