   12
pair.xyz   00
    C   1.131600e+001   1.901100e+001   1.042700e+001
    C   1.458500e+001   1.822000e+001   8.618000e+000
    C   1.242300e+001   1.819800e+001   9.767000e+000
    O   1.235100e+001   1.697300e+001   9.725000e+000
    N   1.345500e+001   1.888300e+001   9.274000e+000
    H   1.073300e+001   1.833100e+001   1.105100e+001
    H   1.345300e+001   1.989400e+001   9.348000e+000
    H   1.422200e+001   1.760600e+001   7.794000e+000
    H   1.175117e+001   1.978271e+001   1.107900e+001
    H   1.065683e+001   1.944304e+001   9.659642e+000
    H   1.528347e+001   1.896580e+001   8.210677e+000
    H   1.511056e+001   1.753706e+001   9.301658e+000
=== === ===

backbone-backbone interaction