   12
pair.xyz   00
    C   4.146000e+000   1.231600e+001   9.654000e+000
    C   4.864000e+000   1.188800e+001   1.336700e+001
    C   3.923000e+000   1.205700e+001   1.114200e+001
    O   2.800000e+000   1.179600e+001   1.157100e+001
    N   4.983000e+000   1.213600e+001   1.193700e+001
    H   3.174000e+000   1.250700e+001   9.196000e+000
    H   5.906000e+000   1.228700e+001   1.153400e+001
    H   4.187000e+000   1.105200e+001   1.352800e+001
    H   4.787768e+000   1.319409e+001   9.489405e+000
    H   4.600947e+000   1.143126e+001   9.184679e+000
    H   5.852290e+000   1.163824e+001   1.378040e+001
    H   4.385568e+000   1.271603e+001   1.391057e+001
=== === ===

backbone-backbone interaction