   12
pair.xyz   00
    C  -5.000000e-003   1.096900e+001   1.380500e+001
    C   3.390000e-001   1.446700e+001   1.233100e+001
    C  -2.580000e-001   1.328800e+001   1.308100e+001
    O  -1.367000e+000   1.338300e+001   1.361000e+001
    N   4.750000e-001   1.217600e+001   1.312700e+001
    H   1.354000e+000   1.214500e+001   1.262000e+001
    H  -1.093000e+000   1.091800e+001   1.371400e+001
    H  -2.640000e-001   1.534900e+001   1.256300e+001
    H   4.114074e-001   1.006714e+001   1.333250e+001
    H   1.987580e-001   1.096033e+001   1.488593e+001
    H   1.383209e+000   1.465220e+001   1.262311e+001
    H   2.851759e-001   1.427754e+001   1.124878e+001
=== === ===

backbone-backbone interaction