   12
pair.xyz   00
    C   1.090000e+001  -8.235000e+000  -6.049000e+000
    C   8.233000e+000  -1.005700e+001  -4.040000e+000
    C   9.325000e+000  -9.056000e+000  -4.395000e+000
    O   9.744000e+000  -8.256000e+000  -3.559000e+000
    N   9.787000e+000  -9.081000e+000  -5.636000e+000
    H   9.423000e+000  -9.756000e+000  -6.299000e+000
    H   1.078600e+001  -7.227000e+000  -5.645000e+000
    H   7.893000e+000  -9.833000e+000  -3.028000e+000
    H   1.185013e+001  -8.665314e+000  -5.699593e+000
    H   1.091744e+001  -8.179786e+000  -7.147475e+000
    H   7.400355e+000  -9.972222e+000  -4.753804e+000
    H   8.603379e+000  -1.109277e+001  -4.042153e+000
=== === ===

backbone-backbone interaction