   12
pair.xyz   00
    C   1.480400e+001  -1.306500e+001   2.221300e+001
    C   1.100700e+001  -1.332400e+001   2.256800e+001
    C   1.245100e+001  -1.370800e+001   2.223400e+001
    O   1.273100e+001  -1.485300e+001   2.186400e+001
    N   1.338000e+001  -1.276000e+001   2.237400e+001
    H   1.309200e+001  -1.180500e+001   2.257800e+001
    H   1.496300e+001  -1.355800e+001   2.125100e+001
    H   1.047600e+001  -1.424600e+001   2.281700e+001
    H   1.542189e+001  -1.215532e+001   2.223946e+001
    H   1.513540e+001  -1.377370e+001   2.298626e+001
    H   1.095228e+001  -1.264567e+001   2.343222e+001
    H   1.051221e+001  -1.288091e+001   2.169116e+001
=== === ===

backbone-backbone interaction