   12
pair.xyz   00
    C  -1.687000e+000   5.801000e+000   3.742600e+001
    C  -1.390000e-001   8.695000e+000   3.549200e+001
    C  -1.410000e+000   6.805000e+000   3.632400e+001
    O  -2.012000e+000   6.720000e+000   3.524600e+001
    N  -5.210000e-001   7.762000e+000   3.655100e+001
    H  -2.007000e+000   4.885000e+000   3.694100e+001
    H  -9.800000e-002   7.842000e+000   3.747100e+001
    H  -1.017000e+000   9.211000e+000   3.509700e+001
    H  -7.597244e-001   5.574416e+000   3.797264e+001
    H  -2.444528e+000   6.172239e+000   3.813193e+001
    H   5.722614e-001   9.437155e+000   3.588355e+001
    H   3.264132e-001   8.136794e+000   3.466629e+001
=== === ===

backbone-backbone interaction