   12
pair.xyz   00
    C   1.831000e+001   5.333500e+001   1.355200e+001
    C   1.515800e+001   5.125200e+001   1.389900e+001
    C   1.740800e+001   5.216400e+001   1.391800e+001
    O   1.789100e+001   5.112400e+001   1.435300e+001
    N   1.611200e+001   5.231800e+001   1.367200e+001
    H   1.932100e+001   5.293600e+001   1.343500e+001
    H   1.577000e+001   5.322700e+001   1.337500e+001
    H   1.529600e+001   5.087600e+001   1.491300e+001
    H   1.800289e+001   5.379188e+001   1.259966e+001
    H   1.832156e+001   5.409524e+001   1.434692e+001
    H   1.412871e+001   5.163311e+001   1.382610e+001
    H   1.532087e+001   5.040273e+001   1.321914e+001
=== === ===

backbone-backbone interaction