   12
pair.xyz   00
    C  -1.000000e-003   7.803000e+000   2.925600e+001
    C  -2.923000e+000   6.985000e+000   3.154800e+001
    C  -2.121000e+000   7.358000e+000   3.031800e+001
    O  -2.715000e+000   7.432000e+000   2.923600e+001
    N  -8.180000e-001   7.543000e+000   3.043100e+001
    H  -3.830000e-001   7.505000e+000   3.134700e+001
    H  -4.240000e-001   8.636000e+000   2.869400e+001
    H  -3.795000e+000   6.448000e+000   3.118400e+001
    H   1.030190e+000   8.045887e+000   2.955206e+001
    H  -7.558756e-003   6.924856e+000   2.859357e+001
    H  -2.355124e+000   6.316601e+000   3.221190e+001
    H  -3.231087e+000   7.882566e+000   3.210429e+001
=== === ===

backbone-backbone interaction