   12
pair.xyz   00
    C  -1.390000e-001   8.695000e+000   3.549200e+001
    C   2.023000e+000   6.202000e+000   3.362800e+001
    C   5.030000e-001   7.925000e+000   3.435300e+001
    O   2.090000e-001   8.180000e+000   3.318000e+001
    N   1.395000e+000   6.991000e+000   3.468200e+001
    H  -1.017000e+000   9.211000e+000   3.509700e+001
    H   1.656000e+000   6.855000e+000   3.565300e+001
    H   2.472000e+000   6.898000e+000   3.292200e+001
    H  -4.263843e-001   7.993090e+000   3.628870e+001
    H   5.722614e-001   9.437155e+000   3.588355e+001
    H   2.810228e+000   5.565303e+000   3.405799e+001
    H   1.264513e+000   5.616653e+000   3.308757e+001
=== === ===

backbone-backbone interaction