   12
pair.xyz   00
    C   1.400000e-002   4.221000e+000   2.795400e+001
    C  -1.000000e-003   7.803000e+000   2.925600e+001
    C  -1.000000e-002   6.598000e+000   2.834700e+001
    O  -1.900000e-002   6.763000e+000   2.712500e+001
    N   2.000000e-002   5.391000e+000   2.885300e+001
    H   6.900000e-002   5.258000e+000   2.985900e+001
    H   7.560000e-001   4.346000e+000   2.716300e+001
    H  -4.240000e-001   8.636000e+000   2.869400e+001
    H   3.047724e-001   3.367180e+000   2.858364e+001
    H  -9.738178e-001   4.109952e+000   2.748295e+001
    H  -6.188546e-001   7.606376e+000   3.014459e+001
    H   1.030190e+000   8.045887e+000   2.955206e+001
=== === ===

backbone-backbone interaction