   12
pair.xyz   00
    C   2.023000e+000   6.202000e+000   3.362800e+001
    C  -1.015000e+000   3.995000e+000   3.293200e+001
    C   9.760000e-001   5.394000e+000   3.288200e+001
    O   1.002000e+000   5.327000e+000   3.164600e+001
    N   7.200000e-002   4.715000e+000   3.357300e+001
    H   2.472000e+000   6.898000e+000   3.292200e+001
    H   1.280000e-001   4.725000e+000   3.458500e+001
    H  -6.020000e-001   3.191000e+000   3.232500e+001
    H   1.549429e+000   6.796980e+000   3.442281e+001
    H   2.810228e+000   5.565303e+000   3.405799e+001
    H  -1.701704e+000   3.594244e+000   3.369215e+001
    H  -1.584378e+000   4.646235e+000   3.225251e+001
=== === ===

backbone-backbone interaction