   12
pair.xyz   00
    C   1.361500e+001   8.493000e+000   1.082000e+001
    C   1.562100e+001   7.398000e+000   7.765000e+000
    C   1.411400e+001   7.640000e+000   9.658000e+000
    O   1.350000e+001   6.622000e+000   9.324000e+000
    N   1.520600e+001   8.048000e+000   9.015000e+000
    H   1.343200e+001   7.826000e+000   1.165800e+001
    H   1.568400e+001   8.886000e+000   9.329000e+000
    H   1.475200e+001   7.414000e+000   7.102000e+000
    H   1.431164e+001   9.276813e+000   1.115216e+001
    H   1.266282e+001   8.948925e+000   1.051101e+001
    H   1.641611e+001   7.968499e+000   7.262674e+000
    H   1.585668e+001   6.324924e+000   7.819442e+000
=== === ===

backbone-backbone interaction