   12
pair.xyz   00
    C   2.658300e+001   3.036600e+001  -2.234000e+000
    C   2.629900e+001   3.256900e+001   8.270000e-001
    C   2.590900e+001   3.112300e+001  -1.096000e+000
    O   2.472200e+001   3.096500e+001  -8.430000e-001
    N   2.674500e+001   3.184300e+001  -3.480000e-001
    H   2.757000e+001   3.009400e+001  -1.888000e+000
    H   2.773000e+001   3.186500e+001  -5.910000e-001
    H   2.521600e+001   3.253700e+001   9.140000e-001
    H   2.601796e+001   2.945663e+001  -2.486560e+000
    H   2.671898e+001   3.101101e+001  -3.114611e+000
    H   2.675094e+001   3.211419e+001   1.720813e+000
    H   2.663915e+001   3.361452e+001   7.926267e-001
=== === ===

backbone-backbone interaction