   12
pair.xyz   00
    C   2.056800e+001   4.289900e+001   1.355200e+001
    C   1.815300e+001   4.370600e+001   1.072700e+001
    C   1.909500e+001   4.289000e+001   1.161500e+001
    O   1.934600e+001   4.169700e+001   1.137100e+001
    N   1.965000e+001   4.355400e+001   1.262800e+001
    H   1.949600e+001   4.455300e+001   1.272400e+001
    H   2.143300e+001   4.253100e+001   1.299900e+001
    H   1.756900e+001   4.301500e+001   1.012400e+001
    H   2.091780e+001   4.361667e+001   1.430870e+001
    H   2.010750e+001   4.204690e+001   1.407341e+001
    H   1.748624e+001   4.433584e+001   1.133424e+001
    H   1.877365e+001   4.436698e+001   1.010419e+001
=== === ===

backbone-backbone interaction