   12
pair.xyz   00
    C   1.814100e+001   4.714800e+001   1.507000e+001
    C   1.559200e+001   4.497300e+001   1.324700e+001
    C   1.734300e+001   4.591600e+001   1.464500e+001
    O   1.766700e+001   4.480000e+001   1.504600e+001
    N   1.636200e+001   4.610200e+001   1.376500e+001
    H   1.908200e+001   4.677900e+001   1.548700e+001
    H   1.613200e+001   4.704600e+001   1.347500e+001
    H   1.521700e+001   4.439800e+001   1.409700e+001
    H   1.835196e+001   4.779515e+001   1.420588e+001
    H   1.761988e+001   4.771872e+001   1.585276e+001
    H   1.471818e+001   4.532887e+001   1.268150e+001
    H   1.619588e+001   4.427721e+001   1.264599e+001
=== === ===

backbone-backbone interaction