   12
pair.xyz   00
    C   1.674000e+001   3.890400e+001   1.251700e+001
    C   1.807000e+001   4.082000e+001   1.550500e+001
    C   1.773100e+001   3.965900e+001   1.457400e+001
    O   1.805400e+001   3.849100e+001   1.486500e+001
    N   1.711700e+001   3.996900e+001   1.343200e+001
    H   1.684200e+001   4.093100e+001   1.325400e+001
    H   1.616300e+001   3.815200e+001   1.306200e+001
    H   1.877800e+001   4.043000e+001   1.623900e+001
    H   1.610740e+001   3.931223e+001   1.171503e+001
    H   1.760670e+001   3.837890e+001   1.208909e+001
    H   1.856251e+001   4.164561e+001   1.497039e+001
    H   1.719673e+001   4.116137e+001   1.608021e+001
=== === ===

backbone-backbone interaction