   12
pair.xyz   00
    C   4.451200e+001   2.294500e+001  -4.922000e+000
    C   4.135900e+001   2.504100e+001  -5.358000e+000
    C   4.235300e+001   2.388900e+001  -5.492000e+000
    O   4.207800e+001   2.290600e+001  -6.184000e+000
    N   4.350500e+001   2.399800e+001  -4.834000e+000
    H   4.371900e+001   2.485400e+001  -4.330000e+000
    H   4.462700e+001   2.265700e+001  -5.967000e+000
    H   4.042300e+001   2.471700e+001  -5.814000e+000
    H   4.548195e+001   2.330900e+001  -4.552257e+000
    H   4.420875e+001   2.203888e+001  -4.377027e+000
    H   4.116625e+001   2.531538e+001  -4.310354e+000
    H   4.172961e+001   2.592184e+001  -5.902766e+000
=== === ===

backbone-backbone interaction