   12
pair.xyz   00
    C   2.381300e+001   5.165900e+001   4.506000e+001
    C   2.598400e+001   4.948900e+001   4.731300e+001
    C   2.498100e+001   5.055400e+001   4.688800e+001
    O   2.441400e+001   5.124800e+001   4.773500e+001
    N   2.475000e+001   5.067000e+001   4.558400e+001
    H   2.525900e+001   5.007100e+001   4.494000e+001
    H   2.412600e+001   5.265000e+001   4.539200e+001
    H   2.579100e+001   4.928100e+001   4.836400e+001
    H   2.380585e+001   5.165614e+001   4.396003e+001
    H   2.278929e+001   5.150245e+001   4.543082e+001
    H   2.584439e+001   4.856455e+001   4.673343e+001
    H   2.700385e+001   4.988075e+001   4.718480e+001
=== === ===

backbone-backbone interaction