   12
pair.xyz   00
    C   2.013400e+001  -2.074600e+001  -1.750000e-001
    C   2.171300e+001  -2.124400e+001   3.262000e+000
    C   2.051400e+001  -2.047100e+001   1.280000e+000
    O   2.006700e+001  -1.950400e+001   1.902000e+000
    N   2.134500e+001  -2.134700e+001   1.848000e+000
    H   1.968500e+001  -1.983400e+001  -5.680000e-001
    H   2.167900e+001  -2.214200e+001   1.307000e+000
    H   2.080600e+001  -2.132000e+001   3.867000e+000
    H   2.104819e+001  -2.097775e+001  -7.411758e-001
    H   1.938754e+001  -2.154923e+001  -2.622766e-001
    H   2.236967e+001  -2.209023e+001   3.512364e+000
    H   2.219189e+001  -2.028983e+001   3.527007e+000
=== === ===

backbone-backbone interaction