   12
pair.xyz   00
    C   2.581200e+001   1.808000e+000   5.624500e+001
    C   2.241600e+001   4.280000e-001   5.699600e+001
    C   2.369300e+001   6.780000e-001   5.623500e+001
    O   2.398100e+001   2.700000e-002   5.523500e+001
    N   2.448100e+001   1.605000e+000   5.675800e+001
    H   2.419300e+001   2.100000e+000   5.759800e+001
    H   2.639000e+001   8.920000e-001   5.637100e+001
    H   2.576700e+001   2.055000e+000   5.518400e+001
    H   2.210700e+001   1.349000e+000   5.748100e+001
    H   2.631444e+001   2.627740e+000   5.677939e+001
    H   2.162751e+001   1.304286e-001   5.628908e+001
    H   2.257631e+001  -3.604956e-001   5.774605e+001
=== === ===

backbone-backbone interaction