   12
pair.xyz   00
    C  -5.532000e+000   5.256000e+000   2.145300e+001
    C  -3.188000e+000   7.229000e+000   1.917100e+001
    C  -4.969000e+000   5.975000e+000   2.024100e+001
    O  -5.591000e+000   5.912000e+000   1.916200e+001
    N  -3.767000e+000   6.524000e+000   2.031700e+001
    H  -6.232000e+000   4.517000e+000   2.109400e+001
    H  -3.290000e+000   6.539000e+000   2.121100e+001
    H  -3.934000e+000   7.911000e+000   1.875600e+001
    H  -4.737181e+000   4.751768e+000   2.202222e+001
    H  -6.084486e+000   5.941399e+000   2.211254e+001
    H  -2.302845e+000   7.815715e+000   1.945782e+001
    H  -2.916378e+000   6.511400e+000   1.838279e+001
=== === ===

backbone-backbone interaction