   12
pair.xyz   00
    C   2.014400e+001   3.829500e+001   1.099300e+001
    C   2.148400e+001   3.703700e+001   1.434800e+001
    C   2.095200e+001   3.751300e+001   1.202600e+001
    O   2.168000e+001   3.659800e+001   1.164700e+001
    N   2.083800e+001   3.784000e+001   1.331200e+001
    H   1.978700e+001   3.756000e+001   1.027300e+001
    H   2.031700e+001   3.866700e+001   1.358100e+001
    H   2.256400e+001   3.702600e+001   1.419400e+001
    H   2.127000e+001   3.747200e+001   1.532500e+001
    H   1.925176e+001   3.877643e+001   1.141976e+001
    H   2.076260e+001   3.900965e+001   1.043031e+001
    H   2.110637e+001   3.600393e+001   1.433498e+001
=== === ===

backbone-backbone interaction