   12
pair.xyz   00
    C   1.249000e+000  -1.676400e+001  -5.344000e+000
    C  -1.344000e+000  -1.834900e+001  -3.053000e+000
    C   5.870000e-001  -1.774200e+001  -4.384000e+000
    O   1.170000e+000  -1.876800e+001  -4.023000e+000
    N  -6.370000e-001  -1.744300e+001  -3.953000e+000
    H   5.780000e-001  -1.591500e+001  -5.485000e+000
    H  -1.094000e+000  -1.659200e+001  -4.272000e+000
    H  -6.760000e-001  -1.863300e+001  -2.235000e+000
    H   2.204487e+000  -1.643195e+001  -4.911810e+000
    H   1.414596e+000  -1.723520e+001  -6.324074e+000
    H  -2.224265e+000  -1.784816e+001  -2.623708e+000
    H  -1.637302e+000  -1.925413e+001  -3.605013e+000
=== === ===

backbone-backbone interaction