   12
pair.xyz   00
    C   8.970000e+000   2.163300e+001   2.059400e+001
    C   1.256300e+001   2.051100e+001   2.003300e+001
    C   1.139300e+001   2.140200e+001   2.044000e+001
    O   1.158500e+001   2.254800e+001   2.086700e+001
    N   1.018000e+001   2.087300e+001   2.030700e+001
    H   1.008000e+001   1.992500e+001   1.996500e+001
    H   9.212000e+000   2.269300e+001   2.066800e+001
    H   1.333700e+001   2.061300e+001   2.079600e+001
    H   8.287534e+000   2.154273e+001   1.973604e+001
    H   8.489214e+000   2.137740e+001   2.154978e+001
    H   1.225631e+001   1.945821e+001   1.994602e+001
    H   1.294161e+001   2.088315e+001   1.906959e+001
=== === ===

backbone-backbone interaction