   12
pair.xyz   00
    C   9.126000e+000   1.706500e+001   1.774000e+001
    C   1.137900e+001   1.694000e+001   2.079400e+001
    C   9.702000e+000   1.736300e+001   1.910800e+001
    O   9.170000e+000   1.821200e+001   1.981600e+001
    N   1.078800e+001   1.669500e+001   1.948500e+001
    H   8.644000e+000   1.798900e+001   1.740700e+001
    H   1.123400e+001   1.602400e+001   1.886200e+001
    H   1.061900e+001   1.672900e+001   2.154800e+001
    H   9.894125e+000   1.677648e+001   1.700737e+001
    H   8.355497e+000   1.628444e+001   1.782402e+001
    H   1.222092e+001   1.625831e+001   2.098499e+001
    H   1.169131e+001   1.798436e+001   2.094156e+001
=== === ===

backbone-backbone interaction