   12
pair.xyz   00
    C   7.986000e+000  -9.233000e+000   1.290800e+001
    C   7.814000e+000  -7.353000e+000   1.625600e+001
    C   7.719000e+000  -8.124000e+000   1.392500e+001
    O   7.330000e+000  -7.019000e+000   1.353200e+001
    N   7.948000e+000  -8.390000e+000   1.521900e+001
    H   8.092000e+000  -8.745000e+000   1.193800e+001
    H   8.211000e+000  -9.334000e+000   1.549200e+001
    H   6.826000e+000  -6.914000e+000   1.618700e+001
    H   8.924591e+000  -9.757771e+000   1.313965e+001
    H   7.114694e+000  -9.899670e+000   1.282814e+001
    H   7.934682e+000  -7.767177e+000   1.726788e+001
    H   8.518203e+000  -6.520564e+000   1.611057e+001
=== === ===

backbone-backbone interaction