   12
pair.xyz   00
    C   2.391500e+001   2.905800e+001   8.839000e+000
    C   2.168500e+001   2.861300e+001   1.190300e+001
    C   2.260800e+001   2.829500e+001   1.072500e+001
    O   2.299100e+001   2.713600e+001   1.054200e+001
    N   2.299700e+001   2.930800e+001   9.947000e+000
    H   2.262900e+001   3.024100e+001   1.010400e+001
    H   2.353900e+001   2.822000e+001   8.255000e+000
    H   2.183000e+001   2.780800e+001   1.262500e+001
    H   2.400321e+001   2.995096e+001   8.202723e+000
    H   2.490556e+001   2.873527e+001   9.192049e+000
    H   2.197131e+001   2.955286e+001   1.239766e+001
    H   2.062164e+001   2.858541e+001   1.162283e+001
=== === ===

backbone-backbone interaction