   12
pair.xyz   00
    C   3.476300e+001   3.894300e+001   1.294700e+001
    C   3.231600e+001   3.599600e+001   1.251100e+001
    C   3.425900e+001   3.752500e+001   1.263900e+001
    O   3.501400e+001   3.667500e+001   1.216600e+001
    N   3.294900e+001   3.731200e+001   1.278500e+001
    H   3.568900e+001   3.908900e+001   1.238700e+001
    H   3.238900e+001   3.805900e+001   1.319100e+001
    H   3.293800e+001   3.521300e+001   1.294700e+001
    H   3.400913e+001   3.967689e+001   1.262592e+001
    H   3.496965e+001   3.907424e+001   1.401941e+001
    H   3.132942e+001   3.594422e+001   1.299471e+001
    H   3.226474e+001   3.580974e+001   1.142810e+001
=== === ===

backbone-backbone interaction