   12
pair.xyz   00
    C   3.231600e+001   3.599600e+001   1.251100e+001
    C   3.192000e+001   3.668400e+001   8.759000e+000
    C   3.224500e+001   3.573800e+001   1.101100e+001
    O   3.255900e+001   3.464700e+001   1.051500e+001
    N   3.188000e+001   3.677000e+001   1.023200e+001
    H   3.293800e+001   3.521300e+001   1.294700e+001
    H   3.161600e+001   3.765500e+001   1.065400e+001
    H   3.126000e+001   3.587400e+001   8.443000e+000
    H   3.278463e+001   3.697029e+001   1.271385e+001
    H   3.132942e+001   3.594422e+001   1.299471e+001
    H   3.154304e+001   3.761954e+001   8.320060e+000
    H   3.293374e+001   3.642390e+001   8.420365e+000
=== === ===

backbone-backbone interaction