   12
pair.xyz   00
    C   3.379200e+001   3.173400e+001   7.790000e+000
    C   3.614700e+001   3.348200e+001   1.017800e+001
    C   3.565300e+001   3.251500e+001   9.108000e+000
    O   3.641400e+001   3.171400e+001   8.576000e+000
    N   3.437600e+001   3.260100e+001   8.801000e+000
    H   3.379700e+001   3.330000e+001   9.254000e+000
    H   3.397200e+001   3.069800e+001   8.086000e+000
    H   3.723400e+001   3.340100e+001   1.020200e+001
    H   3.270298e+001   3.188752e+001   7.768378e+000
    H   3.422956e+001   3.186214e+001   6.788937e+000
    H   3.587284e+001   3.452396e+001   9.956275e+000
    H   3.575613e+001   3.321377e+001   1.117061e+001
=== === ===

backbone-backbone interaction