   12
pair.xyz   00
    C   3.527100e+001   3.346800e+001   4.755000e+000
    C   3.379200e+001   3.173400e+001   7.790000e+000
    C   3.439300e+001   3.191000e+001   6.415000e+000
    O   3.462500e+001   3.096000e+001   5.683000e+000
    N   3.464200e+001   3.316400e+001   6.027000e+000
    H   3.438000e+001   3.392800e+001   6.647000e+000
    H   3.465400e+001   3.306800e+001   3.954000e+000
    H   3.397200e+001   3.069800e+001   8.086000e+000
    H   3.535453e+001   3.455817e+001   4.634346e+000
    H   3.626139e+001   3.299733e+001   4.667892e+000
    H   3.423374e+001   3.238980e+001   8.554720e+000
    H   3.270298e+001   3.188752e+001   7.768378e+000
=== === ===

backbone-backbone interaction