   12
pair.xyz   00
    C   1.148000e+001   3.784000e+000   3.278800e+001
    C   1.443700e+001   5.622000e+000   3.128100e+001
    C   1.305200e+001   5.380000e+000   3.180900e+001
    O   1.217500e+001   6.253000e+000   3.171400e+001
    N   1.282800e+001   4.200000e+000   3.237000e+001
    H   1.358400e+001   3.524000e+000   3.243100e+001
    H   1.082900e+001   4.648000e+000   3.287800e+001
    H   1.507000e+001   4.759000e+000   3.146900e+001
    H   1.106357e+001   3.131571e+000   3.200638e+001
    H   1.149959e+001   3.263049e+000   3.375662e+001
    H   1.437417e+001   5.812724e+000   3.019948e+001
    H   1.488736e+001   6.498482e+000   3.176983e+001
=== === ===

backbone-backbone interaction