   12
pair.xyz   00
    C   1.712000e+001   1.678000e+000   3.136200e+001
    C   1.499700e+001   5.930000e-001   3.432700e+001
    C   1.613300e+001   1.772000e+000   3.252300e+001
    O   1.547000e+001   2.799000e+000   3.270700e+001
    N   1.600700e+001   6.800000e-001   3.327300e+001
    H   1.766900e+001   7.410000e-001   3.146300e+001
    H   1.658900e+001  -1.340000e-001   3.310000e+001
    H   1.429400e+001   1.393000e+000   3.420600e+001
    H   1.650327e+001   1.663640e+000   3.045127e+001
    H   1.784894e+001   2.501799e+000   3.135986e+001
    H   1.446374e+001  -3.665776e-001   3.425738e+001
    H   1.548559e+001   6.639365e-001   3.530998e+001
=== === ===

backbone-backbone interaction