   12
pair.xyz   00
    C   1.954100e+001   4.965700e+001  -1.803200e+001
    C   2.157400e+001   5.066900e+001  -1.497300e+001
    C   2.001400e+001   4.978800e+001  -1.659100e+001
    O   1.943300e+001   4.917000e+001  -1.570500e+001
    N   2.104200e+001   5.058200e+001  -1.633500e+001
    H   2.000400e+001   5.044400e+001  -1.862900e+001
    H   2.150600e+001   5.107700e+001  -1.708400e+001
    H   2.237200e+001   5.141100e+001  -1.493300e+001
    H   2.078500e+001   5.097700e+001  -1.428500e+001
    H   1.989470e+001   4.866618e+001  -1.835320e+001
    H   1.844811e+001   4.975629e+001  -1.810772e+001
    H   2.198571e+001   4.969562e+001  -1.466801e+001
=== === ===

backbone-backbone interaction