   12
pair.xyz   00
    C   1.665900e+001  -1.465200e+001  -6.410000e+000
    C   1.414100e+001  -1.730500e+001  -7.406000e+000
    C   1.544400e+001  -1.654300e+001  -7.365000e+000
    O   1.641000e+001  -1.693900e+001  -8.020000e+000
    N   1.547100e+001  -1.546900e+001  -6.594000e+000
    H   1.462100e+001  -1.518000e+001  -6.116000e+000
    H   1.749700e+001  -1.506000e+001  -6.976000e+000
    H   1.337800e+001  -1.671900e+001  -6.890000e+000
    H   1.648854e+001  -1.360925e+001  -6.715977e+000
    H   1.691149e+001  -1.464118e+001  -5.339426e+000
    H   1.385271e+001  -1.745028e+001  -8.457561e+000
    H   1.424060e+001  -1.827023e+001  -6.887915e+000
=== === ===

backbone-backbone interaction