   12
pair.xyz   00
    C   1.909800e+001   4.559300e+001  -1.463900e+001
    C   2.199900e+001   4.747100e+001  -1.297000e+001
    C   2.089700e+001   4.643400e+001  -1.319200e+001
    O   2.088400e+001   4.541500e+001  -1.251400e+001
    N   2.005600e+001   4.661700e+001  -1.421900e+001
    H   2.008700e+001   4.748900e+001  -1.473200e+001
    H   1.919800e+001   4.471300e+001  -1.401200e+001
    H   2.286100e+001   4.711100e+001  -1.353000e+001
    H   1.806792e+001   4.596926e+001  -1.455316e+001
    H   1.929097e+001   4.529511e+001  -1.568016e+001
    H   2.170294e+001   4.846533e+001  -1.333559e+001
    H   2.230656e+001   4.748485e+001  -1.191396e+001
=== === ===

backbone-backbone interaction