   12
pair.xyz   00
    C   1.048100e+001  -1.534000e+001  -6.100000e+000
    C   8.113000e+000  -1.540000e+001  -9.012000e+000
    C   9.359000e+000  -1.483400e+001  -6.973000e+000
    O   8.543000e+000  -1.399800e+001  -6.558000e+000
    N   9.303000e+000  -1.539900e+001  -8.171000e+000
    H   1.132700e+001  -1.553500e+001  -6.757000e+000
    H   1.005000e+001  -1.604400e+001  -8.425000e+000
    H   7.273000e+000  -1.490500e+001  -8.520000e+000
    H   1.078835e+001  -1.462713e+001  -5.320674e+000
    H   1.019629e+001  -1.629572e+001  -5.635733e+000
    H   8.332413e+000  -1.490100e+001  -9.967436e+000
    H   7.891639e+000  -1.646812e+001  -9.153843e+000
=== === ===

backbone-backbone interaction