   12
pair.xyz   00
    C   3.675000e+001   2.894400e+001  -1.223000e+001
    C   3.534200e+001   2.558800e+001  -1.111300e+001
    C   3.581000e+001   2.791000e+001  -1.162300e+001
    O   3.475100e+001   2.826000e+001  -1.110200e+001
    N   3.619000e+001   2.663400e+001  -1.167400e+001
    H   3.644900e+001   2.992500e+001  -1.185700e+001
    H   3.705900e+001   2.637800e+001  -1.213800e+001
    H   3.433100e+001   2.573100e+001  -1.149300e+001
    H   3.780099e+001   2.877022e+001  -1.195573e+001
    H   3.664639e+001   2.894832e+001  -1.332510e+001
    H   3.570783e+001   2.459616e+001  -1.141702e+001
    H   3.530725e+001   2.566258e+001  -1.001608e+001
=== === ===

backbone-backbone interaction