   12
pair.xyz   00
    C   7.608000e+000  -1.032300e+001  -5.333000e+000
    C   6.532000e+000  -1.367500e+001  -3.830000e+000
    C   6.596000e+000  -1.216800e+001  -4.037000e+000
    O   5.850000e+000  -1.141000e+001  -3.414000e+000
    N   7.517000e+000  -1.171900e+001  -4.879000e+000
    H   8.113000e+000  -1.241200e+001  -5.333000e+000
    H   6.639000e+000  -9.821000e+000  -5.238000e+000
    H   7.215000e+000  -1.419000e+001  -4.506000e+000
    H   8.364088e+000  -9.754870e+000  -4.771254e+000
    H   7.845136e+000  -1.034449e+001  -6.406920e+000
    H   6.836810e+000  -1.384594e+001  -2.786989e+000
    H   5.513786e+000  -1.405585e+001  -3.997916e+000
=== === ===

backbone-backbone interaction