   12
pair.xyz   00
    C   9.745000e+000  -1.897900e+001  -1.287800e+001
    C   7.574000e+000  -2.155200e+001  -1.103400e+001
    C   8.490000e+000  -2.090900e+001  -1.206600e+001
    O   8.789000e+000  -2.156100e+001  -1.304600e+001
    N   8.927000e+000  -1.966400e+001  -1.188000e+001
    H   8.571000e+000  -1.913000e+001  -1.109700e+001
    H   9.957000e+000  -1.964900e+001  -1.371300e+001
    H   8.159000e+000  -2.240300e+001  -1.068000e+001
    H   9.225092e+000  -1.811225e+001  -1.331209e+001
    H   1.072956e+001  -1.867477e+001  -1.249318e+001
    H   7.359439e+000  -2.096349e+001  -1.012978e+001
    H   6.684310e+000  -2.201013e+001  -1.149069e+001
=== === ===

backbone-backbone interaction