   12
pair.xyz   00
    C   1.940300e+001   3.926700e+001   4.591900e+001
    C   1.807600e+001   4.273600e+001   4.667800e+001
    C   1.881700e+001   4.160300e+001   4.598500e+001
    O   1.943600e+001   4.180300e+001   4.494100e+001
    N   1.874700e+001   4.040300e+001   4.655000e+001
    H   1.827200e+001   4.029500e+001   4.744000e+001
    H   2.041100e+001   3.954700e+001   4.561100e+001
    H   1.790000e+001   4.350200e+001   4.592000e+001
    H   1.947198e+001   3.842057e+001   4.661814e+001
    H   1.886540e+001   3.898128e+001   4.500284e+001
    H   1.711357e+001   4.236850e+001   4.706358e+001
    H   1.868759e+001   4.315974e+001   4.748819e+001
=== === ===

backbone-backbone interaction