   12
pair.xyz   00
    C   8.113000e+000  -1.540000e+001  -9.012000e+000
    C   6.608000e+000  -1.892500e+001  -8.474000e+000
    C   7.804000e+000  -1.689100e+001  -9.210000e+000
    O   8.499000e+000  -1.759800e+001  -9.946000e+000
    N   6.817000e+000  -1.744100e+001  -8.492000e+000
    H   7.273000e+000  -1.490500e+001  -8.520000e+000
    H   6.339000e+000  -1.687800e+001  -7.796000e+000
    H   7.471000e+000  -1.931600e+001  -7.945000e+000
    H   9.011309e+000  -1.539925e+001  -8.377145e+000
    H   8.332413e+000  -1.490100e+001  -9.967436e+000
    H   5.713111e+000  -1.920510e+001  -7.898917e+000
    H   6.615850e+000  -1.944526e+001  -9.443157e+000
=== === ===

backbone-backbone interaction