   12
pair.xyz   00
    C   9.270000e+000   9.692600e+001   3.737900e+001
    C   6.523000e+000   9.896000e+001   3.565000e+001
    C   7.789000e+000   9.868600e+001   3.645900e+001
    O   8.401000e+000   9.961900e+001   3.696700e+001
    N   8.132000e+000   9.740400e+001   3.658500e+001
    H   7.558000e+000   9.671300e+001   3.611100e+001
    H   9.524000e+000   9.767500e+001   3.812700e+001
    H   6.208000e+000   9.799900e+001   3.525100e+001
    H   9.025346e+000   9.598804e+001   3.789898e+001
    H   1.014735e+001   9.676609e+001   3.673504e+001
    H   5.726352e+000   9.938110e+001   3.628090e+001
    H   6.711100e+000   9.964781e+001   3.481242e+001
=== === ===

backbone-backbone interaction