   12
pair.xyz   00
    C   3.129900e+001   2.191500e+001   1.190400e+001
    C   2.818200e+001   2.312700e+001   1.005600e+001
    C   2.962200e+001   2.310400e+001   1.057000e+001
    O   3.042300e+001   2.398600e+001   1.025500e+001
    N   2.995300e+001   2.207700e+001   1.135500e+001
    H   2.923200e+001   2.141300e+001   1.162300e+001
    H   3.152800e+001   2.274600e+001   1.257500e+001
    H   2.813500e+001   2.382000e+001   9.214000e+000
    H   3.134628e+001   2.096948e+001   1.246415e+001
    H   3.204340e+001   2.191572e+001   1.109415e+001
    H   2.790920e+001   2.211545e+001   9.720821e+000
    H   2.750240e+001   2.347566e+001   1.084757e+001
=== === ===

backbone-backbone interaction