   12
pair.xyz   00
    C   1.568800e+001   3.885000e+001   4.955100e+001
    C   1.452600e+001   4.137500e+001   4.695800e+001
    C   1.545700e+001   3.952400e+001   4.820400e+001
    O   1.588600e+001   3.901000e+001   4.716600e+001
    N   1.478800e+001   4.067500e+001   4.820700e+001
    H   1.645200e+001   3.808600e+001   4.939900e+001
    H   1.444400e+001   4.107100e+001   4.908200e+001
    H   1.408900e+001   4.067000e+001   4.625000e+001
    H   1.603103e+001   3.955943e+001   5.031849e+001
    H   1.475505e+001   3.836052e+001   4.986725e+001
    H   1.379799e+001   4.218692e+001   4.710217e+001
    H   1.545913e+001   4.175851e+001   4.651960e+001
=== === ===

backbone-backbone interaction