   12
pair.xyz   00
    C   6.864000e+000   1.677000e+000   1.211500e+001
    C   5.395000e+000   2.937000e+000   1.543700e+001
    C   6.232000e+000   2.609000e+000   1.315900e+001
    O   5.988000e+000   3.785000e+000   1.286400e+001
    N   5.994000e+000   2.112000e+000   1.438100e+001
    H   7.265000e+000   2.316000e+000   1.132500e+001
    H   6.178000e+000   1.131000e+000   1.456600e+001
    H   4.536000e+000   3.467000e+000   1.502600e+001
    H   7.687557e+000   1.079075e+000   1.253242e+001
    H   6.102641e+000   1.026045e+000   1.166048e+001
    H   5.069202e+000   2.336846e+000   1.629936e+001
    H   6.080479e+000   3.723391e+000   1.578587e+001
=== === ===

backbone-backbone interaction