   12
pair.xyz   00
    C   3.289700e+001   2.105900e+001   8.552000e+000
    C   3.129900e+001   2.191500e+001   1.190400e+001
    C   3.233400e+001   2.191600e+001   1.077800e+001
    O   3.337600e+001   2.257300e+001   1.086500e+001
    N   3.202400e+001   2.118100e+001   9.713000e+000
    H   3.117700e+001   2.062400e+001   9.749000e+000
    H   3.393900e+001   2.110000e+001   8.869000e+000
    H   3.152800e+001   2.274600e+001   1.257500e+001
    H   3.270352e+001   2.009807e+001   8.052832e+000
    H   3.277110e+001   2.188675e+001   7.838572e+000
    H   3.028673e+001   2.203683e+001   1.149112e+001
    H   3.134628e+001   2.096948e+001   1.246415e+001
=== === ===

backbone-backbone interaction