   12
pair.xyz   00
    C   2.273800e+001   2.171600e+001   1.700400e+001
    C   2.008000e+001   1.944300e+001   1.552400e+001
    C   2.171000e+001   2.059600e+001   1.697200e+001
    O   2.128300e+001   2.011200e+001   1.801700e+001
    N   2.127700e+001   2.024400e+001   1.576800e+001
    H   2.292100e+001   2.204900e+001   1.598700e+001
    H   2.174900e+001   2.063000e+001   1.495500e+001
    H   1.957800e+001   1.922400e+001   1.646800e+001
    H   2.231643e+001   2.253189e+001   1.760948e+001
    H   2.369622e+001   2.138956e+001   1.743440e+001
    H   1.940299e+001   2.003322e+001   1.488894e+001
    H   2.039167e+001   1.849858e+001   1.505396e+001
=== === ===

backbone-backbone interaction