   12
pair.xyz   00
    C   1.876100e+001   1.820100e+001   2.032800e+001
    C   2.191000e+001   2.012300e+001   2.134900e+001
    C   2.058600e+001   1.939600e+001   2.147600e+001
    O   2.013100e+001   1.915600e+001   2.259600e+001
    N   1.997600e+001   1.902700e+001   2.035500e+001
    H   2.042600e+001   1.923000e+001   1.946700e+001
    H   1.866200e+001   1.767000e+001   2.127600e+001
    H   2.205000e+001   2.045100e+001   2.032100e+001
    H   1.785089e+001   1.880249e+001   2.018694e+001
    H   1.887550e+001   1.743359e+001   1.954827e+001
    H   2.189649e+001   2.098357e+001   2.203401e+001
    H   2.271429e+001   1.941844e+001   2.160729e+001
=== === ===

backbone-backbone interaction