   12
pair.xyz   00
    C  -1.086700e+001   1.738000e+000   3.034300e+001
    C  -1.378900e+001  -6.990000e-001   3.044200e+001
    C  -1.263900e+001   1.710000e-001   3.090000e+001
    O  -1.248700e+001   3.810000e-001   3.211400e+001
    N  -1.191300e+001   7.800000e-001   2.996900e+001
    H  -1.208600e+001   5.830000e-001   2.898700e+001
    H  -1.015400e+001   1.251000e+000   3.100800e+001
    H  -1.444200e+001  -7.250000e-001   3.130800e+001
    H  -1.033386e+001   2.116149e+000   2.945826e+001
    H  -1.132611e+001   2.567153e+000   3.090132e+001
    H  -1.433914e+001  -2.603945e-001   2.959644e+001
    H  -1.344007e+001  -1.714138e+000   3.020171e+001
=== === ===

backbone-backbone interaction