   12
pair.xyz   00
    C  -1.314500e+001   2.115000e+000   2.584200e+001
    C  -1.603400e+001   1.448000e+000   2.824800e+001
    C  -1.403300e+001   2.182000e+000   2.707200e+001
    O  -1.367800e+001   2.875000e+000   2.804000e+001
    N  -1.515700e+001   1.466000e+000   2.708200e+001
    H  -1.216000e+001   2.491000e+000   2.612000e+001
    H  -1.540700e+001   9.290000e-001   2.625800e+001
    H  -1.637600e+001   2.464000e+000   2.845400e+001
    H  -1.306785e+001   1.082793e+000   2.546972e+001
    H  -1.358988e+001   2.756495e+000   2.506704e+001
    H  -1.690825e+001   8.052539e-001   2.806754e+001
    H  -1.548010e+001   1.099649e+000   2.913222e+001
=== === ===

backbone-backbone interaction