   12
pair.xyz   00
    C   4.881000e+000   7.659000e+000   1.377000e+001
    C   5.829000e+000   8.854000e+000   1.728700e+001
    C   5.019000e+000   8.576000e+000   1.499100e+001
    O   4.592000e+000   9.738000e+000   1.495100e+001
    N   5.611000e+000   8.061000e+000   1.607200e+001
    H   4.674000e+000   8.297000e+000   1.290900e+001
    H   5.909000e+000   7.092000e+000   1.605600e+001
    H   4.873000e+000   9.261000e+000   1.761900e+001
    H   5.808931e+000   7.100586e+000   1.357734e+001
    H   4.024144e+000   6.982421e+000   1.390431e+001
    H   6.232831e+000   8.222166e+000   1.809180e+001
    H   6.499225e+000   9.703622e+000   1.708966e+001
=== === ===

backbone-backbone interaction