   12
pair.xyz   00
    C   4.869000e+000   3.139300e+001   1.457000e+000
    C   7.193000e+000   2.941100e+001  -8.210000e-001
    C   6.473000e+000   3.059600e+001  -1.800000e-001
    O   6.708000e+000   3.175200e+001  -5.450000e-001
    N   5.605000e+000   3.031900e+001   7.920000e-001
    H   5.413000e+000   2.935000e+001   1.031000e+000
    H   4.473000e+000   3.205200e+001   6.830000e-001
    H   7.980000e+000   2.981600e+001  -1.459000e+000
    H   4.002914e+000   3.099978e+001   2.009516e+000
    H   5.506477e+000   3.202976e+001   2.088002e+000
    H   7.649565e+000   2.876070e+001  -6.030840e-002
    H   6.499753e+000   2.883711e+001  -1.453498e+000
=== === ===

backbone-backbone interaction