   12
pair.xyz   00
    C   2.194800e+001  -1.648800e+001  -6.659000e+000
    C   1.950400e+001  -1.673200e+001  -9.535000e+000
    C   2.076100e+001  -1.611200e+001  -7.511000e+000
    O   1.991900e+001  -1.529500e+001  -7.110000e+000
    N   2.067000e+001  -1.675300e+001  -8.672000e+000
    H   2.282000e+001  -1.658000e+001  -7.311000e+000
    H   2.141200e+001  -1.739800e+001  -8.921000e+000
    H   1.863500e+001  -1.635500e+001  -8.987000e+000
    H   2.214286e+001  -1.570933e+001  -5.906867e+000
    H   2.175524e+001  -1.746531e+001  -6.192397e+000
    H   1.965955e+001  -1.610980e+001  -1.042869e+001
    H   1.929449e+001  -1.775303e+001  -9.886583e+000
=== === ===

backbone-backbone interaction