   12
pair.xyz   00
    C   7.632000e+000  -1.435000e+000   2.110000e+001
    C   8.318000e+000   2.130000e+000   2.222000e+001
    C   8.405000e+000   8.320000e-001   2.144700e+001
    O   9.259000e+000   6.900000e-001   2.057100e+001
    N   7.528000e+000  -1.300000e-001   2.175900e+001
    H   6.874000e+000   1.200000e-002   2.252300e+001
    H   8.597000e+000  -1.892000e+000   2.132200e+001
    H   8.893000e+000   2.875000e+000   2.167000e+001
    H   6.824141e+000  -2.077697e+000   2.147987e+001
    H   7.515043e+000  -1.346199e+000   2.000985e+001
    H   7.266899e+000   2.447999e+000   2.228375e+001
    H   8.772838e+000   1.958633e+000   2.320679e+001
=== === ===

backbone-backbone interaction