   15
pair.xyz   00
    C   5.545000e+000   1.189000e+000   2.631300e+001
    C   2.590000e+000   8.760000e-001   2.550300e+001
    C   3.355000e+000   3.300000e-002   2.334800e+001
    C   5.053000e+000   6.060000e-001   2.498200e+001
    O   5.909000e+000   1.860000e-001   2.419100e+001
    N   3.751000e+000   5.620000e-001   2.466200e+001
    H   6.608000e+000   1.408000e+000   2.619600e+001
    H   2.413000e+000   1.946000e+000   2.548300e+001
    H   2.698000e+000   5.150000e-001   2.652100e+001
    H   3.648000e+000  -1.015000e+000   2.327000e+001
    H   5.038591e+000   2.125250e+000   2.659046e+001
    H   5.446201e+000   4.349342e-001   2.710775e+001
    H   1.754900e+000   3.533373e-001   2.501368e+001
    H   2.258077e+000   1.148385e-001   2.335590e+001
    H   3.782762e+000   6.067043e-001   2.251261e+001
=== === ===

backbone-backbone interaction