   12
pair.xyz   00
    C   1.535500e+001   2.632300e+001   1.104800e+001
    C   1.254700e+001   2.714900e+001   1.353100e+001
    C   1.406000e+001   2.691200e+001   1.161500e+001
    O   1.340500e+001   2.772500e+001   1.094800e+001
    N   1.369800e+001   2.653800e+001   1.284500e+001
    H   1.605900e+001   2.715300e+001   1.107200e+001
    H   1.427600e+001   2.587500e+001   1.335400e+001
    H   1.162100e+001   2.680900e+001   1.306500e+001
    H   1.577489e+001   2.550124e+001   1.164667e+001
    H   1.527926e+001   2.606004e+001   9.982582e+000
    H   1.253553e+001   2.687447e+001   1.459613e+001
    H   1.260187e+001   2.824713e+001   1.349779e+001
=== === ===

backbone-backbone interaction