   12
pair.xyz   00
    C   2.888900e+001  -6.728000e+000   7.314000e+000
    C   2.768500e+001  -3.847000e+000   9.490000e+000
    C   2.864900e+001  -4.875000e+000   8.906000e+000
    O   2.985900e+001  -4.823000e+000   9.202000e+000
    N   2.810700e+001  -5.802000e+000   8.104000e+000
    H   2.710300e+001  -5.808000e+000   7.973000e+000
    H   2.994200e+001  -6.668000e+000   7.595000e+000
    H   2.804100e+001  -2.858000e+000   9.202000e+000
    H   2.773300e+001  -3.915000e+000   1.057800e+001
    H   2.855364e+001  -7.761360e+000   7.486346e+000
    H   2.881656e+001  -6.473738e+000   6.246244e+000
    H   2.664108e+001  -3.953492e+000   9.160024e+000
=== === ===

backbone-backbone interaction