   12
pair.xyz   00
    C   2.021600e+001   1.371900e+001   2.333300e+001
    C   2.314800e+001   1.491400e+001   2.544700e+001
    C   2.233100e+001   1.411600e+001   2.442900e+001
    O   2.285500e+001   1.323500e+001   2.375200e+001
    N   2.104600e+001   1.443400e+001   2.429400e+001
    H   2.062600e+001   1.511500e+001   2.491800e+001
    H   2.028200e+001   1.264700e+001   2.351800e+001
    H   2.420600e+001   1.480600e+001   2.520000e+001
    H   1.917082e+001   1.403744e+001   2.346023e+001
    H   2.056946e+001   1.391473e+001   2.230989e+001
    H   2.286780e+001   1.597682e+001   2.540331e+001
    H   2.298315e+001   1.451592e+001   2.645911e+001
=== === ===

backbone-backbone interaction