   12
pair.xyz   00
    C   1.457300e+001   2.933500e+001   2.415100e+001
    C   1.502600e+001   2.699800e+001   2.711300e+001
    C   1.521000e+001   2.818800e+001   2.619100e+001
    O   1.598300e+001   2.910800e+001   2.649500e+001
    N   1.455400e+001   2.818000e+001   2.503100e+001
    H   1.396500e+001   2.738800e+001   2.479300e+001
    H   1.559200e+001   2.950200e+001   2.380300e+001
    H   1.539300e+001   2.728800e+001   2.809900e+001
    H   1.392090e+001   2.916530e+001   2.328154e+001
    H   1.425949e+001   3.023373e+001   2.470235e+001
    H   1.396500e+001   2.671708e+001   2.718625e+001
    H   1.561948e+001   2.613972e+001   2.676495e+001
=== === ===

backbone-backbone interaction