   15
pair.xyz   00
    C   1.046200e+001   2.628400e+001   2.418700e+001
    C   1.037600e+001   2.495000e+001   2.679100e+001
    C   1.129000e+001   2.694400e+001   2.784800e+001
    C   1.094200e+001   2.698600e+001   2.545100e+001
    O   1.134700e+001   2.815000e+001   2.540400e+001
    N   1.089600e+001   2.630100e+001   2.659100e+001
    H   1.073900e+001   2.694000e+001   2.335800e+001
    H   1.100200e+001   2.422000e+001   2.630000e+001
    H   9.339000e+000   2.482900e+001   2.651600e+001
    H   1.065600e+001   2.781400e+001   2.802800e+001
    H   1.093091e+001   2.530578e+001   2.400477e+001
    H   9.363702e+000   2.623447e+001   2.422289e+001
    H   1.041902e+001   2.478532e+001   2.787775e+001
    H   1.110011e+001   2.618661e+001   2.862279e+001
    H   1.234412e+001   2.725708e+001   2.787672e+001
=== === ===

backbone-backbone interaction