   12
pair.xyz   00
    C  -1.218500e+001   7.400000e+000   4.324100e+001
    C  -9.539000e+000   7.926000e+000   4.056200e+001
    C  -1.028600e+001   8.021000e+000   4.188300e+001
    O  -9.812000e+000   8.710000e+000   4.280400e+001
    N  -1.142100e+001   7.339000e+000   4.199200e+001
    H  -1.175700e+001   6.768000e+000   4.122500e+001
    H  -1.235800e+001   8.451000e+000   4.347200e+001
    H  -8.518000e+000   8.265000e+000   4.074600e+001
    H  -1.317429e+001   6.932534e+000   4.312794e+001
    H  -1.160707e+001   6.973620e+000   4.407418e+001
    H  -9.539749e+000   6.880592e+000   4.021977e+001
    H  -1.000572e+001   8.569279e+000   3.980150e+001
=== === ===

backbone-backbone interaction