   12
pair.xyz   00
    C   2.861600e+001   2.636500e+001   9.089000e+000
    C   3.205700e+001   2.559900e+001   7.697000e+000
    C   3.100400e+001   2.619200e+001   8.619000e+000
    O   3.132000e+001   2.683900e+001   9.622000e+000
    N   2.974800e+001   2.597600e+001   8.256000e+000
    H   2.955100e+001   2.543500e+001   7.417000e+000
    H   2.885100e+001   2.719500e+001   9.758000e+000
    H   3.163200e+001   2.551600e+001   6.694000e+000
    H   2.772296e+001   2.659435e+001   8.489101e+000
    H   2.841866e+001   2.544938e+001   9.665797e+000
    H   3.295542e+001   2.623327e+001   7.673537e+000
    H   3.230107e+001   2.458826e+001   8.055928e+000
=== === ===

backbone-backbone interaction