   12
pair.xyz   00
    C   3.452600e+001   1.863700e+001   5.358000e+000
    C   3.667100e+001   1.813900e+001   2.247000e+000
    C   3.589300e+001   1.782600e+001   3.507000e+000
    O   3.569000e+001   1.663500e+001   3.812000e+000
    N   3.537600e+001   1.884500e+001   4.181000e+000
    H   3.550900e+001   1.978900e+001   3.838000e+000
    H   3.502100e+001   1.794000e+001   6.036000e+000
    H   3.624800e+001   1.754500e+001   1.436000e+000
    H   3.770300e+001   1.781800e+001   2.395000e+000
    H   3.436562e+001   1.958353e+001   5.894988e+000
    H   3.356691e+001   1.820065e+001   5.042175e+000
    H   3.665399e+001   1.919666e+001   1.945234e+000
=== === ===

backbone-backbone interaction