   12
pair.xyz   00
    C   4.555000e+000   7.360000e-001   6.390900e+001
    C   3.311000e+000   4.590000e-001   6.033500e+001
    C   4.443000e+000   9.770000e-001   6.242100e+001
    O   5.263000e+000   1.718000e+000   6.186300e+001
    N   3.450000e+000   3.690000e-001   6.178100e+001
    H   4.462000e+000   1.707000e+000   6.438000e+001
    H   2.808000e+000  -2.200000e-001   6.229700e+001
    H   4.158000e+000  -5.400000e-002   5.987700e+001
    H   3.771382e+000   8.061057e-002   6.431693e+001
    H   5.553674e+000   3.491131e-001   6.415993e+001
    H   2.392038e+000  -6.208347e-002   6.002844e+001
    H   3.313164e+000   1.507764e+000   6.000320e+001
=== === ===

backbone-backbone interaction