   12
pair.xyz   00
    C   3.601400e+001   2.355000e+001   5.033000e+000
    C   3.731100e+001   2.190200e+001   1.871000e+000
    C   3.617400e+001   2.260800e+001   3.868000e+000
    O   3.541300e+001   2.163700e+001   3.772000e+000
    N   3.720400e+001   2.277900e+001   3.048000e+000
    H   3.578400e+001   2.291400e+001   5.888000e+000
    H   3.784700e+001   2.354800e+001   3.181000e+000
    H   3.638400e+001   2.196400e+001   1.296000e+000
    H   3.688065e+001   2.417444e+001   5.295645e+000
    H   3.513513e+001   2.418498e+001   4.847557e+000
    H   3.814575e+001   2.221106e+001   1.224720e+000
    H   3.745820e+001   2.086296e+001   2.200750e+000
=== === ===

backbone-backbone interaction