   12
pair.xyz   00
    C   3.737000e+000   2.964800e+001   5.834000e+000
    C   6.900000e-002   3.064800e+001   5.627000e+000
    C   1.305000e+000   2.976900e+001   5.738000e+000
    O   1.192000e+000   2.855200e+001   5.873000e+000
    N   2.487000e+000   3.038500e+001   5.712000e+000
    H   2.520000e+000   3.139100e+001   5.571000e+000
    H   3.806000e+000   2.894100e+001   5.009000e+000
    H  -7.830000e-001   3.007800e+001   6.001000e+000
    H   4.587991e+000   3.034223e+001   5.771873e+000
    H   3.786000e+000   2.907585e+001   6.772212e+000
    H   1.994308e-001   3.154895e+001   6.244473e+000
    H  -1.248552e-001   3.090624e+001   4.575461e+000
=== === ===

backbone-backbone interaction