   12
pair.xyz   00
    C   1.869200e+001   3.691200e+001   2.875800e+001
    C   1.496700e+001   3.673500e+001   2.793400e+001
    C   1.629200e+001   3.730600e+001   2.841700e+001
    O   1.637800e+001   3.847000e+001   2.876200e+001
    N   1.735400e+001   3.650400e+001   2.836800e+001
    H   1.721000e+001   3.553100e+001   2.811800e+001
    H   1.864700e+001   3.738300e+001   2.974400e+001
    H   1.436000e+001   3.758000e+001   2.759900e+001
    H   1.932477e+001   3.601379e+001   2.881109e+001
    H   1.915022e+001   3.762747e+001   2.805934e+001
    H   1.513268e+001   3.604503e+001   2.709347e+001
    H   1.444896e+001   3.621332e+001   2.875222e+001
=== === ===

backbone-backbone interaction