   12
pair.xyz   00
    C   3.846900e+001   3.295300e+001   4.356000e+000
    C   3.909500e+001   3.616400e+001   2.407000e+000
    C   3.903300e+001   3.467400e+001   2.721000e+000
    O   3.941900e+001   3.384500e+001   1.898000e+000
    N   3.854700e+001   3.433700e+001   3.913000e+000
    H   3.819900e+001   3.505700e+001   4.533000e+000
    H   3.913700e+001   3.234000e+001   3.750000e+000
    H   3.852200e+001   3.633500e+001   1.493000e+000
    H   3.879811e+001   3.286893e+001   5.402241e+000
    H   3.746444e+001   3.251432e+001   4.264217e+000
    H   3.868314e+001   3.674872e+001   3.242746e+000
    H   4.013816e+001   3.645876e+001   2.220080e+000
=== === ===

backbone-backbone interaction