   12
pair.xyz   00
    C   3.907000e+000   3.428700e+001   7.305000e+000
    C   4.990000e-001   3.307900e+001   8.529000e+000
    C   2.839000e+000   3.341400e+001   7.938000e+000
    O   3.155000e+000   3.232500e+001   8.411000e+000
    N   1.585000e+000   3.386400e+001   7.939000e+000
    H   4.694000e+000   3.360400e+001   6.983000e+000
    H   1.382000e+000   3.475700e+001   7.509000e+000
    H   7.630000e-001   3.283400e+001   9.559000e+000
    H   3.557909e+000   3.485550e+001   6.430388e+000
    H   4.338404e+000   3.496255e+001   8.058337e+000
    H  -4.549337e-001   3.362664e+001   8.538944e+000
    H   3.863990e-001   3.213055e+001   7.983318e+000
=== === ===

backbone-backbone interaction