   12
pair.xyz   00
    C   2.728800e+001   3.087200e+001   1.868600e+001
    C   2.389600e+001   3.252700e+001   1.903000e+001
    C   2.622500e+001   3.182800e+001   1.917200e+001
    O   2.650300e+001   3.270500e+001   1.999300e+001
    N   2.502900e+001   3.170800e+001   1.861700e+001
    H   2.679000e+001   3.006500e+001   1.814800e+001
    H   2.488200e+001   3.100200e+001   1.789600e+001
    H   2.423900e+001   3.353100e+001   1.928200e+001
    H   2.796787e+001   3.142335e+001   1.801982e+001
    H   2.780416e+001   3.043049e+001   1.955124e+001
    H   2.318414e+001   3.262063e+001   1.819664e+001
    H   2.344296e+001   3.207179e+001   1.992305e+001
=== === ===

backbone-backbone interaction