   12
pair.xyz   00
    C   1.320100e+001   3.623300e+001   9.919000e+000
    C   1.380200e+001   3.605800e+001   6.176000e+000
    C   1.357400e+001   3.666900e+001   8.523000e+000
    O   1.393800e+001   3.783500e+001   8.308000e+000
    N   1.348000e+001   3.574500e+001   7.567000e+000
    H   1.292600e+001   3.712700e+001   1.047600e+001
    H   1.323400e+001   3.479000e+001   7.819000e+000
    H   1.479200e+001   3.651600e+001   6.119000e+000
    H   1.234888e+001   3.553738e+001   9.918251e+000
    H   1.408692e+001   3.579257e+001   1.039980e+001
    H   1.379269e+001   3.515203e+001   5.552202e+000
    H   1.307084e+001   3.679060e+001   5.803588e+000
=== === ===

backbone-backbone interaction