   12
pair.xyz   00
    C   3.228200e+001   3.084800e+001   1.391700e+001
    C   2.926400e+001   3.218300e+001   1.575500e+001
    C   3.147700e+001   3.170000e+001   1.488100e+001
    O   3.201500e+001   3.253600e+001   1.560900e+001
    N   3.017500e+001   3.145700e+001   1.488800e+001
    H   3.164400e+001   3.062600e+001   1.306000e+001
    H   2.979900e+001   3.077500e+001   1.424600e+001
    H   2.982200e+001   3.281400e+001   1.644200e+001
    H   3.319730e+001   3.136366e+001   1.359092e+001
    H   3.254578e+001   2.988684e+001   1.438240e+001
    H   2.858877e+001   3.283455e+001   1.518094e+001
    H   2.864066e+001   3.149056e+001   1.633979e+001
=== === ===

backbone-backbone interaction