   12
pair.xyz   00
    C   3.222000e+001   3.482500e+001   1.797800e+001
    C   3.537100e+001   3.279100e+001   1.777500e+001
    C   3.357400e+001   3.426000e+001   1.832700e+001
    O   3.417100e+001   3.463900e+001   1.933600e+001
    N   3.406600e+001   3.334800e+001   1.750900e+001
    H   3.169700e+001   3.411800e+001   1.734000e+001
    H   3.353800e+001   3.303400e+001   1.669900e+001
    H   3.599600e+001   3.361900e+001   1.808300e+001
    H   3.164701e+001   3.500463e+001   1.889964e+001
    H   3.237161e+001   3.575417e+001   1.740909e+001
    H   3.532246e+001   3.204228e+001   1.857940e+001
    H   3.580995e+001   3.234841e+001   1.686867e+001
=== === ===

backbone-backbone interaction