   12
pair.xyz   00
    C   1.802000e+001   3.243800e+001   2.628000e+001
    C   1.603100e+001   3.520000e+001   2.461900e+001
    C   1.763100e+001   3.379900e+001   2.574300e+001
    O   1.840800e+001   3.475300e+001   2.584600e+001
    N   1.643700e+001   3.391800e+001   2.518400e+001
    H   1.889500e+001   3.258600e+001   2.691400e+001
    H   1.583100e+001   3.310800e+001   2.508500e+001
    H   1.687900e+001   3.559400e+001   2.405500e+001
    H   1.720397e+001   3.201063e+001   2.688121e+001
    H   1.828187e+001   3.171785e+001   2.549082e+001
    H   1.521185e+001   3.507931e+001   2.389483e+001
    H   1.583394e+001   3.595360e+001   2.539570e+001
=== === ===

backbone-backbone interaction