   12
pair.xyz   00
    C  -8.448000e+000   1.208200e+001   5.200100e+001
    C  -5.608000e+000   1.093900e+001   4.972900e+001
    C  -6.320000e+000   1.158700e+001   5.091500e+001
    O  -5.665000e+000   1.213700e+001   5.180800e+001
    N  -7.642000e+000   1.152900e+001   5.092100e+001
    H  -8.111000e+000   1.102900e+001   5.017500e+001
    H  -8.158000e+000   1.311700e+001   5.217800e+001
    H  -4.555000e+000   1.082300e+001   4.999200e+001
    H  -9.504858e+000   1.204408e+001   5.169832e+001
    H  -8.292026e+000   1.153393e+001   5.294190e+001
    H  -6.044346e+000   9.954966e+000   4.950255e+001
    H  -5.688839e+000   1.160665e+001   4.885853e+001
=== === ===

backbone-backbone interaction