   12
pair.xyz   00
    C  -9.041000e+000   1.042600e+001   4.608800e+001
    C  -1.041300e+001   8.333000e+000   4.896100e+001
    C  -9.476000e+000   1.002400e+001   4.748100e+001
    O  -9.161000e+000   1.074200e+001   4.845300e+001
    N  -1.009500e+001   8.866000e+000   4.764200e+001
    H  -8.260000e+000   1.117900e+001   4.620500e+001
    H  -1.033300e+001   8.312000e+000   4.682600e+001
    H  -1.106100e+001   9.039000e+000   4.948300e+001
    H  -8.642602e+000   9.568773e+000   4.552547e+001
    H  -9.883792e+000   1.086575e+001   4.553454e+001
    H  -1.095812e+001   7.383744e+000   4.885255e+001
    H  -9.502640e+000   8.207184e+000   4.956550e+001
=== === ===

backbone-backbone interaction