   12
pair.xyz   00
    C   3.388300e+001   4.997400e+001   3.411100e+001
    C   3.318000e+001   4.649000e+001   3.272900e+001
    C   3.387600e+001   4.782600e+001   3.296700e+001
    O   3.496000e+001   4.806500e+001   3.244100e+001
    N   3.326000e+001   4.869800e+001   3.376700e+001
    H   3.233600e+001   4.848000e+001   3.411900e+001
    H   3.416800e+001   5.051200e+001   3.320600e+001
    H   3.394500e+001   4.574600e+001   3.250500e+001
    H   3.321122e+001   5.060227e+001   3.471431e+001
    H   3.479276e+001   4.974187e+001   3.468411e+001
    H   3.263525e+001   4.619644e+001   3.363843e+001
    H   3.250029e+001   4.656408e+001   3.186731e+001
=== === ===

backbone-backbone interaction