   12
pair.xyz   00
    C   2.378700e+001   8.633000e+000   1.753300e+001
    C   2.737500e+001   7.708000e+000   1.661100e+001
    C   2.613300e+001   7.969000e+000   1.745300e+001
    O   2.615300e+001   7.771000e+000   1.865700e+001
    N   2.504100e+001   8.389000e+000   1.682100e+001
    H   2.510300e+001   8.596000e+000   1.582700e+001
    H   2.394300e+001   9.358000e+000   1.833400e+001
    H   2.805100e+001   7.078000e+000   1.719800e+001
    H   2.301424e+001   8.999647e+000   1.684132e+001
    H   2.343160e+001   7.700173e+000   1.799509e+001
    H   2.709049e+001   7.189538e+000   1.568350e+001
    H   2.788414e+001   8.649841e+000   1.635859e+001
=== === ===

backbone-backbone interaction