   12
pair.xyz   00
    C   1.388000e+001   4.586600e+001   5.992000e+000
    C   1.098400e+001   4.408900e+001   4.232000e+000
    C   1.195600e+001   4.519200e+001   4.646000e+000
    O   1.186100e+001   4.631700e+001   4.132000e+000
    N   1.291800e+001   4.487500e+001   5.518000e+000
    H   1.292600e+001   4.394500e+001   5.923000e+000
    H   1.333500e+001   4.673200e+001   6.371000e+000
    H   1.054000e+001   4.440000e+001   3.283000e+000
    H   1.447157e+001   4.545212e+001   6.821908e+000
    H   1.453320e+001   4.623202e+001   5.186172e+000
    H   1.151553e+001   4.313568e+001   4.095385e+000
    H   1.018490e+001   4.400379e+001   4.983122e+000
=== === ===

backbone-backbone interaction