   12
pair.xyz   00
    C   1.143900e+001   4.053700e+001   8.008000e+000
    C   1.487700e+001   4.109900e+001   6.432000e+000
    C   1.263000e+001   4.124300e+001   7.358000e+000
    O   1.256800e+001   4.246700e+001   7.132000e+000
    N   1.370000e+001   4.049400e+001   7.066000e+000
    H   1.057200e+001   4.119600e+001   7.921000e+000
    H   1.371400e+001   3.951300e+001   7.321000e+000
    H   1.516300e+001   4.197600e+001   7.007000e+000
    H   1.123247e+001   3.957519e+001   7.515790e+000
    H   1.167344e+001   4.037067e+001   9.069779e+000
    H   1.574338e+001   4.042140e+001   6.416209e+000
    H   1.462406e+001   4.146902e+001   5.427457e+000
=== === ===

backbone-backbone interaction