   12
pair.xyz   00
    C   2.531200e+001   2.127200e+001   1.019800e+001
    C   2.220200e+001   2.113700e+001   8.002000e+000
    C   2.346400e+001   2.169500e+001   8.681000e+000
    O   2.383200e+001   2.285900e+001   8.479000e+000
    N   2.416600e+001   2.085600e+001   9.423000e+000
    H   2.386200e+001   1.989300e+001   9.520000e+000
    H   2.543800e+001   2.235000e+001   1.013100e+001
    H   2.208800e+001   2.007900e+001   8.241000e+000
    H   2.519746e+001   2.101828e+001   1.126219e+001
    H   2.621746e+001   2.080134e+001   9.787360e+000
    H   2.134224e+001   2.172677e+001   8.352692e+000
    H   2.231132e+001   2.126224e+001   6.914634e+000
=== === ===

backbone-backbone interaction