   12
pair.xyz   00
    C   1.313000e+001   4.750600e+001   9.160000e-001
    C   1.601000e+001   4.589900e+001   2.826000e+000
    C   1.522100e+001   4.688900e+001   1.983000e+000
    O   1.574600e+001   4.793400e+001   1.590000e+000
    N   1.395900e+001   4.658400e+001   1.694000e+000
    H   1.356900e+001   4.570600e+001   2.010000e+000
    H   1.364000e+001   4.774200e+001  -2.000000e-002
    H   1.690000e+001   4.642000e+001   3.176000e+000
    H   1.215426e+001   4.705555e+001   6.814198e-001
    H   1.298409e+001   4.846485e+001   1.434958e+000
    H   1.541217e+001   4.558768e+001   3.695297e+000
    H   1.633432e+001   4.502963e+001   2.235228e+000
=== === ===

backbone-backbone interaction