   12
pair.xyz   00
    C   1.928500e+001   6.258000e+000   1.820200e+001
    C   1.743400e+001   9.547000e+000   1.871700e+001
    C   1.827800e+001   7.272000e+000   1.872500e+001
    O   1.735300e+001   6.903000e+000   1.943800e+001
    N   1.843400e+001   8.539000e+000   1.835500e+001
    H   1.879800e+001   5.283000e+000   1.819300e+001
    H   1.925800e+001   8.799000e+000   1.781900e+001
    H   1.735300e+001   9.632000e+000   1.980300e+001
    H   1.955814e+001   6.501631e+000   1.716468e+001
    H   2.018594e+001   6.219388e+000   1.883194e+001
    H   1.768279e+001   1.052709e+001   1.828395e+001
    H   1.646001e+001   9.232394e+000   1.831405e+001
=== === ===

backbone-backbone interaction