   12
pair.xyz   00
    C   2.304500e+001   4.928000e+000   1.798500e+001
    C   2.611200e+001   4.336000e+000   2.016100e+001
    C   2.389600e+001   4.531000e+000   1.918200e+001
    O   2.337200e+001   4.080000e+000   2.020100e+001
    N   2.521200e+001   4.699000e+000   1.906800e+001
    H   2.201500e+001   5.010000e+000   1.833100e+001
    H   2.559900e+001   5.040000e+000   1.818700e+001
    H   2.595200e+001   3.309000e+000   2.046500e+001
    H   2.336560e+001   5.904930e+000   1.759408e+001
    H   2.312462e+001   4.156178e+000   1.720529e+001
    H   2.716152e+001   4.451735e+000   1.985261e+001
    H   2.592375e+001   4.939840e+000   2.106097e+001
=== === ===

backbone-backbone interaction