   12
pair.xyz   00
    C   4.699900e+001   2.200400e+001   2.165200e+001
    C   4.691000e+001   1.845700e+001   2.292300e+001
    C   4.726200e+001   1.992500e+001   2.286800e+001
    O   4.797300e+001   2.045000e+001   2.372500e+001
    N   4.674800e+001   2.058800e+001   2.184400e+001
    H   4.617900e+001   2.009300e+001   2.116600e+001
    H   4.724700e+001   2.246000e+001   2.260400e+001
    H   4.735100e+001   1.796200e+001   2.205600e+001
    H   4.582600e+001   1.839600e+001   2.283300e+001
    H   4.783769e+001   2.216152e+001   2.095789e+001
    H   4.611238e+001   2.251262e+001   2.124554e+001
    H   4.723510e+001   1.794775e+001   2.384223e+001
=== === ===

backbone-backbone interaction