   15
pair.xyz   00
    C   4.442700e+001   1.951400e+001   1.800900e+001
    C   4.194500e+001   1.833700e+001   1.922200e+001
    C   4.336600e+001   1.744200e+001   2.098200e+001
    C   4.446200e+001   1.871600e+001   1.930000e+001
    O   4.552300e+001   1.853800e+001   1.991000e+001
    N   4.331100e+001   1.822000e+001   1.975400e+001
    H   4.392000e+001   1.889000e+001   1.727100e+001
    H   4.186300e+001   1.790900e+001   1.822200e+001
    H   4.163700e+001   1.938200e+001   1.922400e+001
    H   4.400800e+001   1.790800e+001   2.173000e+001
    H   4.391088e+001   2.047833e+001   1.812596e+001
    H   4.544784e+001   1.969954e+001   1.764369e+001
    H   4.133644e+001   1.777113e+001   1.994272e+001
    H   4.232909e+001   1.745720e+001   2.134886e+001
    H   4.371366e+001   1.642205e+001   2.076102e+001
=== === ===

backbone-backbone interaction