   12
pair.xyz   00
    C   3.828300e+001   4.924000e+001   3.162000e+001
    C   3.996100e+001   5.118700e+001   3.441600e+001
    C   3.933400e+001   5.004800e+001   3.236600e+001
    O   4.040800e+001   5.033000e+001   3.183200e+001
    N   3.902700e+001   5.041400e+001   3.360900e+001
    H   3.876600e+001   4.878800e+001   3.075200e+001
    H   3.811300e+001   5.018800e+001   3.398900e+001
    H   4.028400e+001   5.206200e+001   3.384900e+001
    H   3.788064e+001   4.845488e+001   3.227703e+001
    H   3.748764e+001   4.992051e+001   3.128190e+001
    H   3.946642e+001   5.153429e+001   3.533512e+001
    H   4.085576e+001   5.059819e+001   3.466639e+001
=== === ===

backbone-backbone interaction