   12
pair.xyz   00
    C   3.749200e+001  -6.722000e+000   6.746500e+001
    C   3.432200e+001  -7.165000e+000   6.544300e+001
    C   3.625000e+001  -7.363000e+000   6.689800e+001
    O   3.608100e+001  -8.569000e+000   6.700800e+001
    N   3.538200e+001  -6.578000e+000   6.626600e+001
    H   3.827700e+001  -6.957000e+000   6.674500e+001
    H   3.555200e+001  -5.581000e+000   6.621100e+001
    H   3.361700e+001  -7.692000e+000   6.608600e+001
    H   3.739066e+001  -5.630700e+000   6.755878e+001
    H   3.780347e+001  -7.189204e+000   6.841089e+001
    H   3.380410e+001  -6.352595e+000   6.491217e+001
    H   3.477788e+001  -7.848824e+000   6.471187e+001
=== === ===

backbone-backbone interaction