   12
pair.xyz   00
    C   2.076300e+001   2.735000e+000   2.823300e+001
    C   2.302000e+001   5.778000e+000   2.788700e+001
    C   2.212400e+001   4.725000e+000   2.852400e+001
    O   2.187100e+001   4.761000e+000   2.972800e+001
    N   2.163100e+001   3.785000e+000   2.771900e+001
    H   2.184300e+001   3.816000e+000   2.672600e+001
    H   1.987900e+001   3.194000e+000   2.868200e+001
    H   2.360200e+001   6.243000e+000   2.868300e+001
    H   2.045281e+001   2.071529e+000   2.741228e+001
    H   2.128815e+001   2.161448e+000   2.901098e+001
    H   2.370417e+001   5.341938e+000   2.714419e+001
    H   2.238390e+001   6.548808e+000   2.742740e+001
=== === ===

backbone-backbone interaction