   12
pair.xyz   00
    C   2.864600e+001   2.195400e+001   6.870000e+000
    C   3.027500e+001   2.042500e+001   9.949000e+000
    C   2.945800e+001   2.100200e+001   7.728000e+000
    O   3.001300e+001   2.002500e+001   7.220000e+000
    N   2.953700e+001   2.128100e+001   9.027000e+000
    H   2.831000e+001   2.138200e+001   6.010000e+000
    H   2.929800e+001   2.276400e+001   6.551000e+000
    H   2.912800e+001   2.214500e+001   9.373000e+000
    H   3.129800e+001   2.028600e+001   9.597000e+000
    H   2.776821e+001   2.235995e+001   7.394101e+000
    H   3.029868e+001   2.086565e+001   1.095661e+001
    H   2.979309e+001   1.943730e+001   9.996033e+000
=== === ===

backbone-backbone interaction