   12
pair.xyz   00
    C   2.073200e+001   2.469100e+001   1.821900e+001
    C   2.273800e+001   2.171600e+001   1.700400e+001
    C   2.148300e+001   2.378100e+001   1.726500e+001
    O   2.141100e+001   2.396400e+001   1.606100e+001
    N   2.218100e+001   2.279400e+001   1.780400e+001
    H   2.092400e+001   2.437700e+001   1.924100e+001
    H   2.218300e+001   2.270400e+001   1.881800e+001
    H   2.292100e+001   2.204900e+001   1.598700e+001
    H   2.105654e+001   2.573466e+001   1.809475e+001
    H   1.965131e+001   2.457785e+001   1.804783e+001
    H   2.369622e+001   2.138956e+001   1.743440e+001
    H   2.199434e+001   2.090579e+001   1.698085e+001
=== === ===

backbone-backbone interaction