   12
pair.xyz   00
    C   7.406000e+000   1.129300e+001   1.894400e+001
    C   5.263000e+000   8.315000e+000   2.005900e+001
    C   5.648000e+000   9.648000e+000   1.944300e+001
    O   4.782000e+000   1.034700e+001   1.893300e+001
    N   6.933000e+000   1.000800e+001   1.946100e+001
    H   7.613000e+000   9.356000e+000   1.984200e+001
    H   6.560000e+000   1.195500e+001   1.876500e+001
    H   5.046000e+000   7.622000e+000   1.924500e+001
    H   4.353000e+000   8.445000e+000   2.064400e+001
    H   8.062722e+000   1.175429e+001   1.969628e+001
    H   7.937008e+000   1.123968e+001   1.798213e+001
    H   6.044229e+000   7.871068e+000   2.069351e+001
=== === ===

backbone-backbone interaction