   12
pair.xyz   00
    C   2.019100e+001  -1.410000e-001   3.653100e+001
    C   1.869800e+001  -3.350000e+000   3.511300e+001
    C   1.965100e+001  -2.401000e+000   3.583100e+001
    O   2.073300e+001  -2.830000e+000   3.625500e+001
    N   1.931200e+001  -1.124000e+000   3.590900e+001
    H   1.839900e+001  -8.170000e-001   3.558700e+001
    H   2.123700e+001  -4.260000e-001   3.640400e+001
    H   1.767200e+001  -2.992000e+000   3.523300e+001
    H   2.003649e+001   8.438427e-001   3.606602e+001
    H   1.995158e+001  -1.177132e-001   3.760438e+001
    H   1.899856e+001  -3.368124e+000   3.405501e+001
    H   1.877823e+001  -4.369392e+000   3.551846e+001
=== === ===

backbone-backbone interaction