   12
pair.xyz   00
    C   2.353300e+001   8.230000e-001   3.001300e+001
    C   2.076300e+001   2.735000e+000   2.823300e+001
    C   2.149000e+001   1.941000e+000   2.931000e+001
    O   2.093100e+001   1.673000e+000   3.037000e+001
    N   2.274200e+001   1.574000e+000   2.904400e+001
    H   2.314900e+001   1.810000e+000   2.814500e+001
    H   2.299100e+001  -8.500000e-002   3.028300e+001
    H   1.987900e+001   3.194000e+000   2.868200e+001
    H   2.450474e+001   5.468976e-001   2.957769e+001
    H   2.368270e+001   1.417491e+000   3.092633e+001
    H   2.141874e+001   3.528235e+000   2.784469e+001
    H   2.045281e+001   2.071529e+000   2.741228e+001
=== === ===

backbone-backbone interaction