   12
pair.xyz   00
    C   2.577300e+001   3.788000e+000   2.614900e+001
    C   2.302000e+001   5.778000e+000   2.788700e+001
    C   2.488100e+001   4.336000e+000   2.725500e+001
    O   2.503600e+001   3.964000e+000   2.841600e+001
    N   2.393000e+001   5.198000e+000   2.689900e+001
    H   2.622000e+001   2.869000e+000   2.653100e+001
    H   2.391500e+001   5.560000e+000   2.595300e+001
    H   2.360200e+001   6.243000e+000   2.868300e+001
    H   2.518383e+001   3.563949e+000   2.524751e+001
    H   2.657656e+001   4.506110e+000   2.592854e+001
    H   2.238390e+001   6.548808e+000   2.742740e+001
    H   2.237256e+001   5.017111e+000   2.834729e+001
=== === ===

backbone-backbone interaction