   12
pair.xyz   00
    C   1.622000e+000   1.704600e+001   1.267600e+001
    C   1.867000e+000   1.455400e+001   9.811000e+000
    C   1.637000e+000   1.571000e+001   1.195000e+001
    O   1.540000e+000   1.464800e+001   1.257400e+001
    N   1.783000e+000   1.576400e+001   1.062500e+001
    H   1.731000e+000   1.686900e+001   1.374700e+001
    H   6.560000e-001   1.752100e+001   1.249900e+001
    H   1.828000e+000   1.667400e+001   1.017600e+001
    H   9.500000e-001   1.397500e+001   9.932000e+000
    H   2.419536e+000   1.771840e+001   1.232698e+001
    H   2.002167e+000   1.480708e+001   8.749077e+000
    H   2.698190e+000   1.391906e+001   1.015156e+001
=== === ===

backbone-backbone interaction