   12
pair.xyz   00
    C   3.844200e+001   2.184900e+001   2.854100e+001
    C   4.050500e+001   1.871000e+001   2.886900e+001
    C   3.905000e+001   2.050500e+001   2.823600e+001
    O   3.874600e+001   1.991900e+001   2.720600e+001
    N   3.990200e+001   2.000500e+001   2.911600e+001
    H   3.903000e+001   2.230600e+001   2.933200e+001
    H   4.011900e+001   2.051200e+001   2.996800e+001
    H   4.003000e+001   1.819200e+001   2.803900e+001
    H   4.155300e+001   1.883000e+001   2.860800e+001
    H   3.845407e+001   2.247729e+001   2.763817e+001
    H   3.742068e+001   2.170587e+001   2.892364e+001
    H   4.042752e+001   1.805363e+001   2.974830e+001
=== === ===

backbone-backbone interaction