   19
pair.xyz   00
    C   3.909000e+001   1.764500e+001   2.510100e+001
    C   3.949200e+001   1.390700e+001   2.560100e+001
    C   3.621900e+001   2.003100e+001   2.432400e+001
    C   3.788500e+001   1.824700e+001   2.440500e+001
    C   3.969500e+001   1.540600e+001   2.581800e+001
    O   3.740800e+001   1.768800e+001   2.341600e+001
    O   4.042100e+001   1.582600e+001   2.671700e+001
    N   3.902300e+001   1.620100e+001   2.499800e+001
    N   3.738200e+001   1.936600e+001   2.491100e+001
    H   3.907200e+001   1.791200e+001   2.615100e+001
    H   4.000300e+001   1.802800e+001   2.464300e+001
    H   3.859600e+001   1.582000e+001   2.416000e+001
    H   3.780900e+001   1.976800e+001   2.573900e+001
    H   3.873900e+001   1.373900e+001   2.482400e+001
    H   3.588100e+001   1.949500e+001   2.343500e+001
    H   4.041841e+001   1.341281e+001   2.527305e+001
    H   3.913719e+001   1.343704e+001   2.653012e+001
    H   3.537040e+001   2.009197e+001   2.502125e+001
    H   3.643592e+001   2.107148e+001   2.404056e+001
=== === ===

backbone-backbone interaction