   12
pair.xyz   00
    C   1.408600e+001  -2.713200e+001  -5.210000e+000
    C   1.496000e+001  -2.369900e+001  -3.799000e+000
    C   1.452900e+001  -2.603500e+001  -4.245000e+000
    O   1.474000e+001  -2.630600e+001  -3.061000e+000
    N   1.463200e+001  -2.479400e+001  -4.709000e+000
    H   1.369600e+001  -2.796300e+001  -4.620000e+000
    H   1.452500e+001  -2.461700e+001  -5.706000e+000
    H   1.593300e+001  -2.388700e+001  -3.340000e+000
    H   1.329010e+001  -2.676280e+001  -5.873502e+000
    H   1.494122e+001  -2.749924e+001  -5.796290e+000
    H   1.501139e+001  -2.274833e+001  -4.349988e+000
    H   1.421951e+001  -2.363639e+001  -2.987983e+000
=== === ===

backbone-backbone interaction