   12
pair.xyz   00
    C   3.621900e+001   2.003100e+001   2.432400e+001
    C   3.599600e+001   2.323500e+001   2.232400e+001
    C   3.651900e+001   2.147000e+001   2.393200e+001
    O   3.719200e+001   2.220800e+001   2.465600e+001
    N   3.600400e+001   2.185300e+001   2.277200e+001
    H   3.588100e+001   1.949500e+001   2.343500e+001
    H   3.548100e+001   2.118000e+001   2.222000e+001
    H   3.668900e+001   2.383000e+001   2.292000e+001
    H   3.709364e+001   1.953088e+001   2.476546e+001
    H   3.537040e+001   2.009197e+001   2.502125e+001
    H   3.627832e+001   2.329949e+001   2.126280e+001
    H   3.496724e+001   2.359030e+001   2.248345e+001
=== === ===

backbone-backbone interaction