   12
pair.xyz   00
    C   1.496000e+001  -2.369900e+001  -3.799000e+000
    C   1.157400e+001  -2.368400e+001  -1.989000e+000
    C   1.393100e+001  -2.361200e+001  -2.672000e+000
    O   1.430600e+001  -2.341800e+001  -1.518000e+000
    N   1.264300e+001  -2.371300e+001  -3.003000e+000
    H   1.593300e+001  -2.388700e+001  -3.340000e+000
    H   1.239500e+001  -2.379800e+001  -3.988000e+000
    H   1.164600e+001  -2.275300e+001  -1.417000e+000
    H   1.471306e+001  -2.452340e+001  -4.484117e+000
    H   1.501139e+001  -2.274833e+001  -4.349988e+000
    H   1.058182e+001  -2.372648e+001  -2.462049e+000
    H   1.168063e+001  -2.450391e+001  -1.263477e+000
=== === ===

backbone-backbone interaction