   12
pair.xyz   00
    C   1.459800e+001  -2.280900e+001   2.011000e+000
    C   1.574500e+001  -2.620700e+001   6.240000e-001
    C   1.552300e+001  -2.502900e+001   1.601000e+000
    O   1.593700e+001  -2.508100e+001   2.769000e+000
    N   1.488200e+001  -2.395000e+001   1.144000e+000
    H   1.458900e+001  -2.390900e+001   1.760000e-001
    H   1.555000e+001  -2.241800e+001   2.374000e+000
    H   1.595400e+001  -2.708500e+001   1.238000e+000
    H   1.410537e+001  -2.200944e+001   1.438268e+000
    H   1.401392e+001  -2.309925e+001   2.896776e+000
    H   1.485344e+001  -2.640939e+001   1.231958e-002
    H   1.662112e+001  -2.603832e+001  -1.939270e-002
=== === ===

backbone-backbone interaction