   12
pair.xyz   00
    C   3.029400e+001   7.126000e+000   4.966000e+000
    C   3.139900e+001   8.232000e+000   8.430000e+000
    C   3.110700e+001   7.308000e+000   7.259000e+000
    O   3.133300e+001   6.102000e+000   7.337000e+000
    N   3.060900e+001   7.882000e+000   6.170000e+000
    H   3.037300e+001   8.869000e+000   6.201000e+000
    H   2.955700e+001   6.355000e+000   5.200000e+000
    H   3.208600e+001   7.715000e+000   9.106000e+000
    H   2.987473e+001   7.803012e+000   4.207143e+000
    H   3.119566e+001   6.631958e+000   4.574943e+000
    H   3.185938e+001   9.160296e+000   8.060791e+000
    H   3.046661e+001   8.465637e+000   8.964848e+000
=== === ===

backbone-backbone interaction