   12
pair.xyz   00
    C   1.157400e+001  -2.368400e+001  -1.989000e+000
    C   1.226400e+001  -2.719500e+001  -5.890000e-001
    C   1.172200e+001  -2.482200e+001  -9.820000e-001
    O   1.161400e+001  -2.457100e+001   2.170000e-001
    N   1.204100e+001  -2.602600e+001  -1.466000e+000
    H   1.164600e+001  -2.275300e+001  -1.417000e+000
    H   1.205800e+001  -2.614600e+001  -2.474000e+000
    H   1.137700e+001  -2.736300e+001   2.800000e-002
    H   1.237192e+001  -2.370565e+001  -2.745869e+000
    H   1.058182e+001  -2.372648e+001  -2.462049e+000
    H   1.244555e+001  -2.809415e+001  -1.196091e+000
    H   1.310490e+001  -2.700702e+001   9.477195e-002
=== === ===

backbone-backbone interaction