   12
pair.xyz   00
    C   2.151200e+001   3.674000e+000   3.790300e+001
    C   2.339500e+001   8.090000e-001   3.620700e+001
    C   2.276400e+001   1.652000e+000   3.731500e+001
    O   2.283100e+001   1.291000e+000   3.848900e+001
    N   2.213700e+001   2.768000e+000   3.693900e+001
    H   2.220000e+001   3.063000e+000   3.597100e+001
    H   2.217500e+001   3.771000e+000   3.876500e+001
    H   2.352100e+001  -2.070000e-001   3.659000e+001
    H   2.140381e+001   4.671533e+000   3.745220e+001
    H   2.053925e+001   3.327000e+000   3.828161e+001
    H   2.273217e+001   7.939185e-001   3.532926e+001
    H   2.437808e+001   1.231037e+000   3.595120e+001
=== === ===

backbone-backbone interaction