   12
pair.xyz   00
    C   3.297300e+001   2.475600e+001   2.394600e+001
    C   3.599600e+001   2.323500e+001   2.232400e+001
    C   3.458300e+001   2.372300e+001   2.254300e+001
    O   3.367600e+001   2.334100e+001   2.179600e+001
    N   3.436100e+001   2.453200e+001   2.356600e+001
    H   3.511800e+001   2.486800e+001   2.415500e+001
    H   3.231200e+001   2.472100e+001   2.308200e+001
    H   3.668900e+001   2.383000e+001   2.292000e+001
    H   3.269274e+001   2.394858e+001   2.463848e+001
    H   3.280270e+001   2.571593e+001   2.445544e+001
    H   3.600206e+001   2.218862e+001   2.266320e+001
    H   3.627832e+001   2.329949e+001   2.126280e+001
=== === ===

backbone-backbone interaction