   12
pair.xyz   00
    C   3.699900e+001   2.753500e+001   2.639500e+001
    C   3.918000e+001   2.455800e+001   2.597000e+001
    C   3.740400e+001   2.624200e+001   2.573300e+001
    O   3.675300e+001   2.566100e+001   2.486200e+001
    N   3.855600e+001   2.582900e+001   2.623000e+001
    H   3.788600e+001   2.816500e+001   2.637600e+001
    H   3.899900e+001   2.642300e+001   2.692200e+001
    H   3.862600e+001   2.401000e+001   2.521500e+001
    H   3.613746e+001   2.804309e+001   2.593719e+001
    H   3.677689e+001   2.735111e+001   2.745653e+001
    H   4.021608e+001   2.467549e+001   2.561966e+001
    H   3.918651e+001   2.400038e+001   2.691817e+001
=== === ===

backbone-backbone interaction