   12
pair.xyz   00
    C   6.789000e+000   4.072000e+000   1.574400e+001
    C   3.177000e+000   5.259000e+000   1.604800e+001
    C   4.379000e+000   4.322000e+000   1.603600e+001
    O   4.245000e+000   3.141000e+000   1.636200e+001
    N   5.553000e+000   4.849000e+000   1.570100e+001
    H   5.580000e+000   5.796000e+000   1.533500e+001
    H   6.560000e+000   3.013000e+000   1.560900e+001
    H   2.512000e+000   4.880000e+000   1.682600e+001
    H   7.440693e+000   4.363490e+000   1.490714e+001
    H   7.315665e+000   4.135663e+000   1.670762e+001
    H   3.456522e+000   6.292703e+000   1.629964e+001
    H   2.638427e+000   5.228840e+000   1.508934e+001
=== === ===

backbone-backbone interaction