   12
pair.xyz   00
    C   4.403000e+000   8.617000e+000   1.253200e+001
    C   6.985000e+000   9.302000e+000   1.524800e+001
    C   5.440000e+000   8.364000e+000   1.361600e+001
    O   5.694000e+000   7.218000e+000   1.397900e+001
    N   6.018000e+000   9.433000e+000   1.416000e+001
    H   3.777000e+000   7.723000e+000   1.249000e+001
    H   5.799000e+000   1.034900e+001   1.377600e+001
    H   7.785000e+000   8.625000e+000   1.493200e+001
    H   3.765962e+000   9.479937e+000   1.277597e+001
    H   4.897811e+000   8.740882e+000   1.155742e+001
    H   7.426993e+000   1.028142e+001   1.548335e+001
    H   6.524472e+000   8.838585e+000   1.613296e+001
=== === ===

backbone-backbone interaction