   12
pair.xyz   00
    C   1.619500e+001   4.137000e+000   3.643800e+001
    C   1.834200e+001   1.556000e+000   3.826000e+001
    C   1.716000e+001   2.478000e+000   3.795800e+001
    O   1.616500e+001   2.490000e+000   3.868700e+001
    N   1.727800e+001   3.267000e+000   3.689300e+001
    H   1.812500e+001   3.202000e+000   3.633200e+001
    H   1.539700e+001   4.236000e+000   3.717600e+001
    H   1.817500e+001   6.550000e-001   3.766600e+001
    H   1.657270e+001   5.128990e+000   3.614938e+001
    H   1.577719e+001   3.609852e+000   3.556763e+001
    H   1.931427e+001   1.972149e+000   3.795748e+001
    H   1.834987e+001   1.283500e+000   3.932568e+001
=== === ===

backbone-backbone interaction