   12
pair.xyz   00
    C   3.130000e+001   2.741500e+001   2.903700e+001
    C   3.112500e+001   2.773400e+001   2.526500e+001
    C   3.091400e+001   2.719800e+001   2.666700e+001
    O   3.034700e+001   2.611900e+001   2.682400e+001
    N   3.136200e+001   2.791700e+001   2.767800e+001
    H   3.186600e+001   2.877600e+001   2.750600e+001
    H   3.056300e+001   2.661800e+001   2.913000e+001
    H   3.190800e+001   2.849100e+001   2.527000e+001
    H   3.229137e+001   2.699936e+001   2.927031e+001
    H   3.101972e+001   2.821591e+001   2.973698e+001
    H   3.143936e+001   2.687844e+001   2.464921e+001
    H   3.018654e+001   2.816791e+001   2.488947e+001
=== === ===

backbone-backbone interaction