   12
pair.xyz   00
    C   2.631800e+001   2.498400e+001   3.100100e+001
    C   2.716700e+001   2.469200e+001   3.469500e+001
    C   2.664200e+001   2.438300e+001   3.330600e+001
    O   2.601000e+001   2.334500e+001   3.312200e+001
    N   2.685300e+001   2.525400e+001   3.232900e+001
    H   2.741100e+001   2.608600e+001   3.248800e+001
    H   2.584100e+001   2.401200e+001   3.097800e+001
    H   2.759100e+001   2.569600e+001   3.470700e+001
    H   2.553405e+001   2.571108e+001   3.074256e+001
    H   2.710413e+001   2.495293e+001   3.023221e+001
    H   2.633293e+001   2.460882e+001   3.540733e+001
    H   2.795488e+001   2.397751e+001   3.497562e+001
=== === ===

backbone-backbone interaction