   12
pair.xyz   00
    C   2.963700e+001   2.924300e+001   3.189700e+001
    C   2.794400e+001   2.923400e+001   3.527900e+001
    C   2.890800e+001   2.870000e+001   3.310400e+001
    O   2.859600e+001   2.750900e+001   3.318300e+001
    N   2.864100e+001   2.959200e+001   3.405100e+001
    H   3.053300e+001   2.974700e+001   3.226300e+001
    H   2.901600e+001   2.999100e+001   3.141100e+001
    H   2.891200e+001   3.055700e+001   3.391100e+001
    H   2.747700e+001   2.825900e+001   3.517600e+001
    H   2.993510e+001   2.846931e+001   3.117413e+001
    H   2.862819e+001   2.920956e+001   3.613998e+001
    H   2.716989e+001   2.997252e+001   3.553462e+001
=== === ===

backbone-backbone interaction