   12
pair.xyz   00
    C   1.107000e+001  -5.211000e+000   3.506800e+001
    C   1.089200e+001  -8.426000e+000   3.305600e+001
    C   1.081100e+001  -6.148000e+000   3.391400e+001
    O   1.035800e+001  -5.744000e+000   3.284200e+001
    N   1.109100e+001  -7.434000e+000   3.412100e+001
    H   1.054900e+001  -4.276000e+000   3.485500e+001
    H   1.148800e+001  -7.726000e+000   3.501000e+001
    H   1.143700e+001  -8.125000e+000   3.215900e+001
    H   1.067387e+001  -5.635531e+000   3.600227e+001
    H   1.214502e+001  -4.996572e+000   3.515938e+001
    H   1.125776e+001  -9.406150e+000   3.339589e+001
    H   9.828596e+000  -8.521230e+000   3.279123e+001
=== === ===

backbone-backbone interaction