   12
pair.xyz   00
    C   1.657100e+001   1.386400e+001   1.150000e+000
    C   1.605100e+001   1.311400e+001   4.855000e+000
    C   1.583300e+001   1.359600e+001   3.435000e+000
    O   1.479400e+001   1.418900e+001   3.156000e+000
    N   1.675500e+001   1.334200e+001   2.509000e+000
    H   1.760100e+001   1.283100e+001   2.750000e+000
    H   1.641200e+001   1.494300e+001   1.216000e+000
    H   1.510700e+001   1.320900e+001   5.394000e+000
    H   1.745674e+001   1.369201e+001   5.208083e-001
    H   1.568452e+001   1.344565e+001   6.508610e-001
    H   1.635849e+001   1.205803e+001   4.835501e+000
    H   1.680091e+001   1.374595e+001   5.353271e+000
=== === ===

backbone-backbone interaction