   12
pair.xyz   00
    C   7.172000e+000  -9.108000e+000   2.828200e+001
    C   9.153000e+000  -5.918000e+000   2.895200e+001
    C   8.334000e+000  -6.966000e+000   2.821500e+001
    O   8.064000e+000  -6.808000e+000   2.701000e+001
    N   7.943000e+000  -8.030000e+000   2.892000e+001
    H   8.273000e+000  -8.157000e+000   2.987200e+001
    H   7.685000e+000  -9.429000e+000   2.737400e+001
    H   9.084000e+000  -4.998000e+000   2.837300e+001
    H   7.086658e+000  -9.975885e+000   2.895244e+001
    H   6.166563e+000  -8.764149e+000   2.799763e+001
    H   8.737988e+000  -5.744889e+000   2.995589e+001
    H   1.021312e+001  -6.199606e+000   2.903470e+001
=== === ===

backbone-backbone interaction