   12
pair.xyz   00
    C   2.794400e+001   2.923400e+001   3.527900e+001
    C   2.487800e+001   3.059800e+001   3.700200e+001
    C   2.687800e+001   3.025100e+001   3.563100e+001
    O   2.693400e+001   3.142000e+001   3.524700e+001
    N   2.590200e+001   2.977000e+001   3.638400e+001
    H   2.747700e+001   2.825900e+001   3.517600e+001
    H   2.593400e+001   2.878600e+001   3.663600e+001
    H   2.520800e+001   3.163500e+001   3.701100e+001
    H   2.847033e+001   2.950434e+001   3.435169e+001
    H   2.862819e+001   2.920956e+001   3.613998e+001
    H   2.388452e+001   3.055410e+001   3.653182e+001
    H   2.475435e+001   3.026291e+001   3.804240e+001
=== === ===

backbone-backbone interaction