   12
pair.xyz   00
    C   3.469000e+001   4.616000e+000   6.970000e+000
    C   3.164600e+001   2.437000e+000   6.296000e+000
    C   3.384000e+001   3.366000e+000   6.774000e+000
    O   3.434400e+001   2.244000e+000   6.820000e+000
    N   3.254400e+001   3.559000e+000   6.529000e+000
    H   3.572900e+001   4.365000e+000   6.753000e+000
    H   3.216600e+001   4.502000e+000   6.565000e+000
    H   3.168400e+001   1.745000e+000   7.139000e+000
    H   3.434645e+001   5.389184e+000   6.267037e+000
    H   3.460598e+001   4.979379e+000   8.004841e+000
    H   3.061180e+001   2.784134e+000   6.154842e+000
    H   3.195928e+001   1.897261e+000   5.390165e+000
=== === ===

backbone-backbone interaction