   12
pair.xyz   00
    C   1.420200e+001   1.599000e+000   3.443800e+001
    C   1.184200e+001   4.316000e+000   3.321100e+001
    C   1.328500e+001   2.393000e+000   3.352000e+001
    O   1.312200e+001   2.044000e+000   3.235200e+001
    N   1.269600e+001   3.469000e+000   3.403200e+001
    H   1.500800e+001   1.226000e+000   3.381000e+001
    H   1.289000e+001   3.761000e+000   3.498300e+001
    H   1.107800e+001   3.705000e+000   3.272600e+001
    H   1.464442e+001   2.207236e+000   3.524069e+001
    H   1.366636e+001   7.415381e-001   3.487141e+001
    H   1.134110e+001   5.075242e+000   3.382959e+001
    H   1.245802e+001   4.785932e+000   3.243018e+001
=== === ===

backbone-backbone interaction