   12
pair.xyz   00
    C   1.274000e+001   2.103000e+000   2.864600e+001
    C   1.612900e+001   2.603000e+000   3.028700e+001
    C   1.509600e+001   2.363000e+000   2.919200e+001
    O   1.543500e+001   2.221000e+000   2.801500e+001
    N   1.382600e+001   2.332000e+000   2.958700e+001
    H   1.361100e+001   2.377000e+000   3.057700e+001
    H   1.293400e+001   1.183000e+000   2.809200e+001
    H   1.707900e+001   2.861000e+000   2.981800e+001
    H   1.178401e+001   1.998776e+000   2.918006e+001
    H   1.266903e+001   2.909016e+000   2.790081e+001
    H   1.576711e+001   3.433833e+000   3.091050e+001
    H   1.623781e+001   1.674575e+000   3.086682e+001
=== === ===

backbone-backbone interaction