   12
pair.xyz   00
    C   1.483600e+001   5.961000e+000   3.151900e+001
    C   1.612900e+001   2.603000e+000   3.028700e+001
    C   1.541800e+001   4.905000e+000   3.058600e+001
    O   1.565000e+001   5.165000e+000   2.940300e+001
    N   1.564900e+001   3.705000e+000   3.111400e+001
    H   1.428400e+001   6.643000e+000   3.087300e+001
    H   1.551300e+001   3.572000e+000   3.211100e+001
    H   1.707900e+001   2.861000e+000   2.981800e+001
    H   1.414854e+001   5.499926e+000   3.224344e+001
    H   1.562843e+001   6.508664e+000   3.205015e+001
    H   1.623781e+001   1.674575e+000   3.086682e+001
    H   1.538358e+001   2.429814e+000   2.949684e+001
=== === ===

backbone-backbone interaction