   15
pair.xyz   00
    C   2.108200e+001   2.892600e+001  -2.963200e+001
    C   2.194400e+001   2.711100e+001  -3.181400e+001
    C   1.974900e+001   2.726600e+001  -3.277000e+001
    C   2.019800e+001   2.863500e+001  -3.083100e+001
    O   1.908100e+001   2.916800e+001  -3.095200e+001
    N   2.061300e+001   2.769000e+001  -3.168000e+001
    H   2.211900e+001   2.898700e+001  -2.996600e+001
    H   2.231800e+001   2.669300e+001  -3.088000e+001
    H   2.263200e+001   2.787200e+001  -3.218600e+001
    H   1.948100e+001   2.813500e+001  -3.337300e+001
    H   2.081284e+001   2.989101e+001  -2.917779e+001
    H   2.102300e+001   2.811005e+001  -2.889664e+001
    H   2.183715e+001   2.631151e+001  -3.256193e+001
    H   2.038892e+001   2.660761e+001  -3.337583e+001
    H   1.881616e+001   2.678564e+001  -3.243975e+001
=== === ===

backbone-backbone interaction