   12
pair.xyz   00
    C   1.229700e+001   3.123000e+000   2.248300e+001
    C   1.524100e+001   1.586000e+000   2.436000e+001
    C   1.430000e+001   1.939000e+000   2.320700e+001
    O   1.451600e+001   1.531000e+000   2.206400e+001
    N   1.325800e+001   2.716000e+000   2.350900e+001
    H   1.309500e+001   2.978000e+000   2.447700e+001
    H   1.188400e+001   2.238000e+000   2.199400e+001
    H   1.618400e+001   1.229000e+000   2.394200e+001
    H   1.147690e+001   3.704262e+000   2.292974e+001
    H   1.279501e+001   3.723803e+000   2.170775e+001
    H   1.542651e+001   2.484885e+000   2.496629e+001
    H   1.479048e+001   7.939949e-001   2.497624e+001
=== === ===

backbone-backbone interaction