   12
pair.xyz   00
    C   1.470000e+001   5.597000e+000   2.087600e+001
    C   1.229700e+001   3.123000e+000   2.248300e+001
    C   1.298500e+001   3.953000e+000   2.141200e+001
    O   1.265600e+001   3.845000e+000   2.023500e+001
    N   1.394900e+001   4.777000e+000   2.181700e+001
    H   1.412600e+001   4.866000e+000   2.280900e+001
    H   1.400400e+001   6.154000e+000   2.025000e+001
    H   1.188400e+001   2.238000e+000   2.199400e+001
    H   1.534911e+001   6.302238e+000   2.141572e+001
    H   1.531224e+001   4.963154e+000   2.021766e+001
    H   1.301931e+001   2.817090e+000   2.325416e+001
    H   1.147690e+001   3.704262e+000   2.292974e+001
=== === ===

backbone-backbone interaction