   22
pair.xyz   00
    C   2.631800e+001   2.498400e+001   3.100100e+001
    C   2.522900e+001   2.599400e+001   3.064200e+001
    C   2.716700e+001   2.469200e+001   3.469500e+001
    C   2.799500e+001   2.405800e+001   2.773500e+001
    C   2.740600e+001   2.494100e+001   2.993700e+001
    C   2.664200e+001   2.438300e+001   3.330600e+001
    O   2.848700e+001   2.552500e+001   3.008600e+001
    O   2.601000e+001   2.334500e+001   3.312200e+001
    N   2.685300e+001   2.525400e+001   3.232900e+001
    N   2.707600e+001   2.426600e+001   2.883900e+001
    H   2.584100e+001   2.401200e+001   3.097800e+001
    H   2.741100e+001   2.608600e+001   3.248800e+001
    H   2.479600e+001   2.570300e+001   2.969100e+001
    H   2.443300e+001   2.593100e+001   3.138600e+001
    H   2.619600e+001   2.376400e+001   2.882600e+001
    H   2.759100e+001   2.569600e+001   3.470700e+001
    H   2.879500e+001   2.478200e+001   2.777900e+001
    H   2.558082e+001   2.703416e+001   3.057644e+001
    H   2.633293e+001   2.460882e+001   3.540733e+001
    H   2.795488e+001   2.397751e+001   3.497562e+001
    H   2.842191e+001   2.304508e+001   2.777676e+001
    H   2.749170e+001   2.410573e+001   2.675806e+001
=== === ===

backbone-backbone interaction