   12
pair.xyz   00
    C   2.310500e+001   2.174000e+001   3.073700e+001
    C   2.453000e+001   2.073600e+001   2.737500e+001
    C   2.401800e+001   2.166700e+001   2.953600e+001
    O   2.504200e+001   2.235200e+001   2.951200e+001
    N   2.366300e+001   2.086900e+001   2.853500e+001
    H   2.239100e+001   2.091900e+001   3.065600e+001
    H   2.283600e+001   2.028600e+001   2.859800e+001
    H   2.531900e+001   2.148700e+001   2.739300e+001
    H   2.370773e+001   2.166240e+001   3.165390e+001
    H   2.256577e+001   2.269806e+001   3.070023e+001
    H   2.501147e+001   1.974856e+001   2.731878e+001
    H   2.398691e+001   2.083089e+001   2.642313e+001
=== === ===

backbone-backbone interaction