   12
pair.xyz   00
    C   1.875400e+001   1.364000e+000   7.435000e+001
    C   1.768000e+001  -2.063000e+000   7.301200e+001
    C   1.784300e+001   1.950000e-001   7.403800e+001
    O   1.663300e+001   2.770000e-001   7.427800e+001
    N   1.842500e+001  -8.840000e-001   7.349400e+001
    H   1.965100e+001   1.278000e+000   7.373200e+001
    H   1.942600e+001  -8.710000e-001   7.334700e+001
    H   1.660600e+001  -1.890000e+000   7.310200e+001
    H   1.826465e+001   2.321580e+000   7.411852e+001
    H   1.906961e+001   1.340783e+000   7.540349e+001
    H   1.790126e+001  -2.319376e+000   7.196543e+001
    H   1.795601e+001  -2.930155e+000   7.362995e+001
=== === ===

backbone-backbone interaction