   12
pair.xyz   00
    C   1.695300e+001   2.746000e+000   1.971900e+001
    C   1.470000e+001   5.597000e+000   2.087600e+001
    C   1.555000e+001   4.717000e+000   1.996200e+001
    O   1.566700e+001   4.986000e+000   1.876700e+001
    N   1.614300e+001   3.662000e+000   2.051900e+001
    H   1.604300e+001   3.502000e+000   2.151600e+001
    H   1.770600e+001   3.307000e+000   1.916600e+001
    H   1.400400e+001   6.154000e+000   2.025000e+001
    H   1.743995e+001   1.995847e+000   2.035943e+001
    H   1.631837e+001   2.240018e+000   1.897656e+001
    H   1.413288e+001   4.977779e+000   2.158659e+001
    H   1.534911e+001   6.302238e+000   2.141572e+001
=== === ===

backbone-backbone interaction