   12
pair.xyz   00
    C   3.845100e+001  -1.546400e+001   7.970000e-001
    C   3.550600e+001  -1.373200e+001  -9.010000e-001
    C   3.660200e+001  -1.474800e+001  -6.040000e-001
    O   3.672200e+001  -1.573600e+001  -1.315000e+000
    N   3.738500e+001  -1.452800e+001   4.480000e-001
    H   3.727500e+001  -1.368700e+001   1.003000e+000
    H   3.909900e+001  -1.559900e+001  -6.900000e-002
    H   3.472200e+001  -1.428500e+001  -1.424000e+000
    H   3.906184e+001  -1.507019e+001   1.622707e+000
    H   3.804400e+001  -1.644656e+001   1.077937e+000
    H   3.507699e+001  -1.329391e+001   1.225217e-002
    H   3.588173e+001  -1.294245e+001  -1.568414e+000
=== === ===

backbone-backbone interaction