   12
pair.xyz   00
    C   3.746400e+001  -9.522000e+000   1.091000e+000
    C   3.679800e+001  -1.179300e+001   4.082000e+000
    C   3.742500e+001  -1.078000e+001   1.952000e+000
    O   3.785300e+001  -1.185300e+001   1.523000e+000
    N   3.689700e+001  -1.065500e+001   3.171000e+000
    H   3.751400e+001  -9.839000e+000   5.000000e-002
    H   3.663200e+001  -9.730000e+000   3.493000e+000
    H   3.778100e+001  -1.225100e+001   4.210000e+000
    H   3.654672e+001  -8.938347e+000   1.258188e+000
    H   3.835989e+001  -8.939066e+000   1.350957e+000
    H   3.642100e+001  -1.144903e+001   5.056453e+000
    H   3.612353e+001  -1.254555e+001   3.647533e+000
=== === ===

backbone-backbone interaction