   12
pair.xyz   00
    C   9.680000e+000   2.232100e+001   1.350700e+001
    C   9.677000e+000   2.505200e+001   1.085100e+001
    C   9.745000e+000   2.370400e+001   1.288300e+001
    O   9.869000e+000   2.468900e+001   1.360300e+001
    N   9.649000e+000   2.378500e+001   1.155000e+001
    H   9.470000e+000   2.243400e+001   1.457100e+001
    H   9.616000e+000   2.293100e+001   1.100300e+001
    H   1.059900e+001   2.558000e+001   1.109900e+001
    H   8.888964e+000   2.171049e+001   1.304706e+001
    H   1.065959e+001   2.183515e+001   1.338715e+001
    H   9.653900e+000   2.486792e+001   9.766757e+000
    H   8.828797e+000   2.568471e+001   1.115139e+001
=== === ===

backbone-backbone interaction