   12
pair.xyz   00
    C  -6.794000e+000  -1.148300e+001  -8.833000e+000
    C  -9.093000e+000  -1.323200e+001  -1.132000e+001
    C  -8.680000e+000  -1.231500e+001  -1.018300e+001
    O  -9.526000e+000  -1.162100e+001  -9.609000e+000
    N  -7.384000e+000  -1.230700e+001  -9.878000e+000
    H  -6.760000e+000  -1.291800e+001  -1.039400e+001
    H  -7.558000e+000  -1.086700e+001  -8.354000e+000
    H  -8.210000e+000  -1.377400e+001  -1.165700e+001
    H  -6.320966e+000  -1.211997e+001  -8.071090e+000
    H  -6.026663e+000  -1.082300e+001  -9.263811e+000
    H  -9.863073e+000  -1.393426e+001  -1.096812e+001
    H  -9.459805e+000  -1.263710e+001  -1.216944e+001
=== === ===

backbone-backbone interaction