   12
pair.xyz   00
    C   8.887000e+000   9.791800e+001   2.454500e+001
    C   7.011000e+000   1.007110e+002   2.637800e+001
    C   7.705000e+000   9.873200e+001   2.514100e+001
    O   6.523000e+000   9.834800e+001   2.507500e+001
    N   8.033000e+000   9.987300e+001   2.576400e+001
    H   8.519000e+000   9.709500e+001   2.392500e+001
    H   9.008000e+000   1.001180e+002   2.590600e+001
    H   6.440000e+000   1.000890e+002   2.706600e+001
    H   9.542034e+000   9.858050e+001   2.396017e+001
    H   9.475285e+000   9.749463e+001   2.537245e+001
    H   7.468750e+000   1.015424e+002   2.693414e+001
    H   6.260457e+000   1.010657e+002   2.565630e+001
=== === ===

backbone-backbone interaction