   12
pair.xyz   00
    C   9.760000e+000   3.438600e+001   1.564000e+001
    C   8.283000e+000   3.169800e+001   1.790400e+001
    C   8.929000e+000   3.303900e+001   1.751800e+001
    O   9.032000e+000   3.395700e+001   1.833700e+001
    N   9.401000e+000   3.313300e+001   1.628000e+001
    H   9.348000e+000   3.230800e+001   1.569300e+001
    H   9.664000e+000   3.425100e+001   1.456200e+001
    H   9.033000e+000   3.514400e+001   1.593400e+001
    H   7.651000e+000   3.185800e+001   1.877800e+001
    H   1.076051e+001   3.480161e+001   1.583037e+001
    H   7.664086e+000   3.129681e+001   1.708792e+001
    H   9.066466e+000   3.096557e+001   1.814838e+001
=== === ===

backbone-backbone interaction