   12
pair.xyz   00
    C   1.015500e+001   2.816600e+001   1.494000e+001
    C   8.421000e+000   3.063000e+001   1.260000e+001
    C   9.713000e+000   2.947500e+001   1.429900e+001
    O   1.000700e+001   3.054700e+001   1.483800e+001
    N   8.958000e+000   2.940800e+001   1.320400e+001
    H   1.034700e+001   2.838800e+001   1.599200e+001
    H   8.773000e+000   2.850600e+001   1.277000e+001
    H   9.246000e+000   3.130200e+001   1.235200e+001
    H   9.368846e+000   2.739869e+001   1.488347e+001
    H   1.109582e+001   2.780197e+001   1.450143e+001
    H   7.863339e+000   3.040004e+001   1.168015e+001
    H   7.777662e+000   3.114956e+001   1.332537e+001
=== === ===

backbone-backbone interaction