   12
pair.xyz   00
    C   3.639500e+001   5.940100e+001   5.171800e+001
    C   3.647600e+001   5.800700e+001   4.817400e+001
    C   3.658600e+001   5.900300e+001   4.931700e+001
    O   3.692100e+001   6.016800e+001   4.910200e+001
    N   3.631000e+001   5.854600e+001   5.053300e+001
    H   3.598400e+001   5.758400e+001   5.062300e+001
    H   3.631600e+001   6.045500e+001   5.146800e+001
    H   3.599100e+001   5.710700e+001   4.854800e+001
    H   3.564244e+001   5.909366e+001   5.245907e+001
    H   3.739612e+001   5.937049e+001   5.217279e+001
    H   3.586105e+001   5.844711e+001   4.737517e+001
    H   3.748864e+001   5.777519e+001   4.781229e+001
=== === ===

backbone-backbone interaction