   12
pair.xyz   00
    C   4.168600e+001   4.314600e+001   5.306200e+001
    C   4.164000e+001   4.645700e+001   5.122100e+001
    C   4.190700e+001   4.461400e+001   5.276600e+001
    O   4.243500e+001   4.534200e+001   5.360900e+001
    N   4.152500e+001   4.505300e+001   5.157300e+001
    H   4.131800e+001   4.264700e+001   5.216800e+001
    H   4.106900e+001   4.441800e+001   5.092300e+001
    H   4.237700e+001   4.693200e+001   5.186100e+001
    H   4.265124e+001   4.272314e+001   5.337744e+001
    H   4.092852e+001   4.305587e+001   5.385453e+001
    H   4.196428e+001   4.660828e+001   5.018083e+001
    H   4.065693e+001   4.692713e+001   5.137118e+001
=== === ===

backbone-backbone interaction