   12
pair.xyz   00
    C   4.456100e+001   4.534100e+001   5.682200e+001
    C   4.508400e+001   4.764000e+001   5.384100e+001
    C   4.527700e+001   4.702400e+001   5.521600e+001
    O   4.616100e+001   4.743400e+001   5.596900e+001
    N   4.445300e+001   4.603800e+001   5.554500e+001
    H   4.372100e+001   4.576300e+001   5.489400e+001
    H   4.523300e+001   4.586700e+001   5.750100e+001
    H   4.429300e+001   4.709900e+001   5.332400e+001
    H   4.358370e+001   4.524956e+001   5.731851e+001
    H   4.496854e+001   4.434100e+001   5.661243e+001
    H   4.482923e+001   4.870580e+001   5.393673e+001
    H   4.600356e+001   4.749831e+001   5.325420e+001
=== === ===

backbone-backbone interaction