   12
pair.xyz   00
    C   2.483900e+001   2.707300e+001   9.970000e+000
    C   2.148400e+001   2.815800e+001   8.576000e+000
    C   2.296900e+001   2.813700e+001   8.757000e+000
    O   2.369100e+001   2.889600e+001   8.111000e+000
    N   2.342900e+001   2.722100e+001   9.608000e+000
    H   2.275400e+001   2.665400e+001   1.011700e+001
    H   2.540300e+001   2.790700e+001   9.563000e+000
    H   2.105600e+001   2.742100e+001   9.258000e+000
    H   2.498224e+001   2.709243e+001   1.106046e+001
    H   2.522186e+001   2.613141e+001   9.549503e+000
    H   2.105024e+001   2.914285e+001   8.803856e+000
    H   2.119798e+001   2.786477e+001   7.555113e+000
=== === ===

backbone-backbone interaction