   12
pair.xyz   00
    C   3.387000e+001  -1.282500e+001   1.211200e+001
    C   3.407200e+001  -1.015500e+001   9.391000e+000
    C   3.432700e+001  -1.210500e+001   1.084400e+001
    O   3.521300e+001  -1.258200e+001   1.013600e+001
    N   3.372800e+001  -1.094800e+001   1.056800e+001
    H   3.460800e+001  -1.359200e+001   1.235100e+001
    H   3.299100e+001  -1.061500e+001   1.118400e+001
    H   3.404500e+001  -1.079500e+001   8.507000e+000
    H   3.379017e+001  -1.211182e+001   1.294567e+001
    H   3.289906e+001  -1.331191e+001   1.193821e+001
    H   3.334828e+001  -9.338407e+000   9.251686e+000
    H   3.509332e+001  -9.755133e+000   9.474727e+000
=== === ===

backbone-backbone interaction