   12
pair.xyz   00
    C   2.220200e+001   2.079200e+001   1.477900e+001
    C   2.280600e+001   2.021800e+001   1.846800e+001
    C   2.282400e+001   2.026000e+001   1.604700e+001
    O   2.381100e+001   1.952200e+001   1.598900e+001
    N   2.226000e+001   2.062800e+001   1.718700e+001
    H   2.143900e+001   2.152300e+001   1.504700e+001
    H   2.146200e+001   2.125600e+001   1.718400e+001
    H   2.373100e+001   1.966000e+001   1.833300e+001
    H   2.298581e+001   2.125927e+001   1.416476e+001
    H   2.169751e+001   1.997408e+001   1.424374e+001
    H   2.303452e+001   2.109831e+001   1.908673e+001
    H   2.210305e+001   1.958252e+001   1.902659e+001
=== === ===

backbone-backbone interaction