   12
pair.xyz   00
    C   2.061900e+001   9.948800e+001   3.573500e+001
    C   1.682500e+001   9.937000e+001   3.572700e+001
    C   1.917900e+001   9.974200e+001   3.532500e+001
    O   1.892800e+001   1.005840e+002   3.445800e+001
    N   1.822900e+001   9.905200e+001   3.594500e+001
    H   2.102500e+001   1.004990e+002   3.571900e+001
    H   1.846600e+001   9.830900e+001   3.659100e+001
    H   1.659700e+001   9.932600e+001   3.466200e+001
    H   1.619600e+001   9.866100e+001   3.626100e+001
    H   2.071610e+001   9.909436e+001   3.675756e+001
    H   2.117180e+001   9.887757e+001   3.500576e+001
    H   1.660765e+001   1.003816e+002   3.610031e+001
=== === ===

backbone-backbone interaction