   12
pair.xyz   00
    C   3.815200e+001   1.194300e+001   9.527000e+000
    C   3.857000e+001   1.540000e+001   8.008000e+000
    C   3.893900e+001   1.402300e+001   8.500000e+000
    O   4.012100e+001   1.367400e+001   8.533000e+000
    N   3.793800e+001   1.326800e+001   8.937000e+000
    H   3.698600e+001   1.361600e+001   8.868000e+000
    H   3.917800e+001   1.161700e+001   9.354000e+000
    H   3.749700e+001   1.553600e+001   8.139000e+000
    H   3.797860e+001   1.194372e+001   1.061325e+001
    H   3.747183e+001   1.121913e+001   9.054373e+000
    H   3.910219e+001   1.615662e+001   8.603237e+000
    H   3.882736e+001   1.549904e+001   6.943127e+000
=== === ===

backbone-backbone interaction