   12
pair.xyz   00
    C   1.744700e+001   1.091600e+001   2.129700e+001
    C   1.744200e+001   1.076100e+001   2.509900e+001
    C   1.752700e+001   1.027000e+001   2.367400e+001
    O   1.772000e+001   9.085000e+000   2.343700e+001
    N   1.743400e+001   1.120600e+001   2.272500e+001
    H   1.726800e+001   1.216800e+001   2.300200e+001
    H   1.726200e+001   9.856000e+000   2.111100e+001
    H   1.725600e+001   1.183500e+001   2.507700e+001
    H   1.665643e+001   1.150623e+001   2.081055e+001
    H   1.843773e+001   1.118212e+001   2.089998e+001
    H   1.658641e+001   1.025068e+001   2.556541e+001
    H   1.838274e+001   1.060505e+001   2.564735e+001
=== === ===

backbone-backbone interaction