   12
pair.xyz   00
    C   1.787400e+001   1.593800e+001   2.266100e+001
    C     16   1.498100e+001   2.578300e+001
    C   1.716900e+001   1.507200e+001   2.366400e+001
    O   1.704400e+001   1.386900e+001   2.348600e+001
    N   1.670600e+001   1.567200e+001   2.473000e+001
    H   1.823600e+001   1.683500e+001   2.316700e+001
    H   1.681000e+001   1.667400e+001   2.481400e+001
    H   1.615800e+001   1.391200e+001   2.576800e+001
    H   1.871773e+001   1.536715e+001   2.224597e+001
    H   1.716614e+001   1.623982e+001   2.187497e+001
    H   1.643750e+001   1.545041e+001   2.667644e+001
    H   1.494224e+001   1.527740e+001   2.584039e+001
=== === ===

backbone-backbone interaction