   12
pair.xyz   00
    C   1.679200e+001   1.032070e+002   3.250500e+001
    C   1.380200e+001   1.043440e+002   3.458300e+001
    C   1.553000e+001   1.039510e+002   3.291500e+001
    O   1.500200e+001   1.047440e+002   3.214100e+001
    N   1.503300e+001   1.037100e+002   3.412800e+001
    H   1.720900e+001   1.037010e+002   3.162700e+001
    H   1.549900e+001   1.030580e+002   3.475000e+001
    H   1.302600e+001   1.041500e+002   3.384300e+001
    H   1.352200e+001   1.038960e+002   3.553200e+001
    H   1.752736e+001   1.032055e+002   3.332307e+001
    H   1.653396e+001   1.021706e+002   3.224195e+001
    H   1.388916e+001   1.054314e+002   3.472464e+001
=== === ===

backbone-backbone interaction