   12
pair.xyz   00
    C   1.299700e+001   1.075840e+002   3.066100e+001
    C   1.644200e+001   1.084870e+002   3.207500e+001
    C   1.514900e+001   1.085710e+002   3.126800e+001
    O   1.491000e+001   1.095360e+002   3.053000e+001
    N   1.429000e+001   1.075530e+002   3.137500e+001
    H   1.452500e+001   1.067340e+002   3.193000e+001
    H   1.316400e+001   1.078570e+002   2.961600e+001
    H   1.682400e+001   1.095030e+002   3.221100e+001
    H   1.250602e+001   1.065999e+002   3.068299e+001
    H   1.235571e+001   1.083546e+002   3.111376e+001
    H   1.624509e+001   1.080108e+002   3.304684e+001
    H   1.719750e+001   1.078913e+002   3.154170e+001
=== === ===

backbone-backbone interaction