   12
pair.xyz   00
    C   4.021900e+001   4.572300e+001   6.286200e+001
    C   3.806800e+001   4.567800e+001   5.972700e+001
    C   3.933200e+001   4.621800e+001   6.172800e+001
    O   3.901300e+001   4.740400e+001   6.165200e+001
    N   3.892200e+001   4.530600e+001   6.085000e+001
    H   4.027400e+001   4.651000e+001   6.361600e+001
    H   3.922000e+001   4.434100e+001   6.094700e+001
    H   3.853100e+001   4.649900e+001   5.918000e+001
    H   3.980066e+001   4.481472e+001   6.332028e+001
    H   4.123366e+001   4.554398e+001   6.247676e+001
    H   3.793361e+001   4.483236e+001   5.903647e+001
    H   3.709051e+001   4.603220e+001   6.008625e+001
=== === ===

backbone-backbone interaction