   12
pair.xyz   00
    C   6.792000e+000  -7.478000e+000   6.587400e+001
    C   9.258000e+000  -4.860000e+000   6.712500e+001
    C   7.957000e+000  -5.617000e+000   6.694300e+001
    O   6.938000e+000  -5.235000e+000   6.751700e+001
    N      8  -6.720000e+000   6.619100e+001
    H   8.862000e+000  -6.960000e+000   6.571700e+001
    H   6.005000e+000  -6.799000e+000   6.553800e+001
    H   9.170000e+000  -4.267000e+000   6.803300e+001
    H   6.998384e+000  -8.209334e+000   6.507867e+001
    H   6.411923e+000  -8.035832e+000   6.674254e+001
    H   1.008602e+001  -5.576662e+000   6.722879e+001
    H   9.408884e+000  -4.184272e+000   6.627023e+001
=== === ===

backbone-backbone interaction