   12
pair.xyz   00
    C   1.131500e+001   1.097320e+002   3.335200e+001
    C   1.299700e+001   1.075840e+002   3.066100e+001
    C   1.209900e+001   1.086630e+002   3.129500e+001
    O   1.142800e+001   1.094240e+002   3.060000e+001
    N   1.210600e+001   1.087490e+002   3.262400e+001
    H   1.264500e+001   1.080740e+002   3.315800e+001
    H   1.026900e+001   1.096360e+002   3.305700e+001
    H   1.316400e+001   1.078570e+002   2.961600e+001
    H   1.139995e+001   1.095264e+002   3.442927e+001
    H   1.162295e+001   1.107647e+002   3.313142e+001
    H   1.395973e+001   1.075609e+002   3.119262e+001
    H   1.250602e+001   1.065999e+002   3.068299e+001
=== === ===

backbone-backbone interaction