   12
pair.xyz   00
    C   1.380200e+001   1.043440e+002   3.458300e+001
    C   1.521000e+001   1.077220e+002   3.562200e+001
    C   1.392200e+001   1.058410e+002   3.477800e+001
    O   1.304000e+001   1.065890e+002   3.436100e+001
    N   1.499700e+001   1.062880e+002   3.542300e+001
    H   1.302600e+001   1.041500e+002   3.384300e+001
    H   1.352200e+001   1.038960e+002   3.553200e+001
    H   1.566400e+001   1.056380e+002   3.583000e+001
    H   1.430700e+001   1.081610e+002   3.604500e+001
    H   1.473105e+001   1.038655e+002   3.423961e+001
    H   1.604847e+001   1.078915e+002   3.631354e+001
    H   1.538446e+001   1.082526e+002   3.467433e+001
=== === ===

backbone-backbone interaction