   12
pair.xyz   00
    C   1.521000e+001   1.077220e+002   3.562200e+001
    C   1.644200e+001   1.084870e+002   3.207500e+001
    C   1.545300e+001   1.084610e+002   3.430200e+001
    O   1.498900e+001   1.095850e+002   3.412400e+001
    N   1.617900e+001   1.078510e+002   3.337300e+001
    H   1.430700e+001   1.081610e+002   3.604500e+001
    H   1.658300e+001   1.069380e+002   3.356100e+001
    H   1.682400e+001   1.095030e+002   3.221100e+001
    H   1.504989e+001   1.066440e+002   3.547241e+001
    H   1.604847e+001   1.078915e+002   3.631354e+001
    H   1.719750e+001   1.078913e+002   3.154170e+001
    H   1.551025e+001   1.085475e+002   3.149347e+001
=== === ===

backbone-backbone interaction