   12
pair.xyz   00
    C   1.350400e+001   1.128020e+002   3.270700e+001
    C   1.131500e+001   1.097320e+002   3.335200e+001
    C   1.174500e+001   1.111740e+002   3.304400e+001
    O   1.089600e+001   1.120410e+002   3.283800e+001
    N   1.305100e+001   1.114510e+002   3.302000e+001
    H   1.372800e+001   1.107080e+002   3.315900e+001
    H   1.317300e+001   1.134690e+002   3.350200e+001
    H   1.026900e+001   1.096360e+002   3.305700e+001
    H   1.459802e+001   1.128949e+002   3.264005e+001
    H   1.318366e+001   1.130908e+002   3.169509e+001
    H   1.191231e+001   1.089897e+002   3.280226e+001
    H   1.139995e+001   1.095264e+002   3.442927e+001
=== === ===

backbone-backbone interaction