   12
pair.xyz   00
    C   8.097000e+000   1.136040e+002   3.293300e+001
    C   4.385000e+000   1.141090e+002   3.227800e+001
    C   6.602000e+000   1.136110e+002   3.317200e+001
    O   6.155000e+000   1.131950e+002   3.425400e+001
    N   5.838000e+000   1.140610e+002   3.217700e+001
    H   8.538000e+000   1.128460e+002   3.357100e+001
    H   6.274000e+000   1.144480e+002   3.134000e+001
    H   4.112000e+000   1.145880e+002   3.322100e+001
    H   8.439525e+000   1.133895e+002   3.190994e+001
    H   8.592276e+000   1.145542e+002   3.318172e+001
    H   3.967484e+000   1.147047e+002   3.145291e+001
    H   3.943106e+000   1.131039e+002   3.234439e+001
=== === ===

backbone-backbone interaction