   12
pair.xyz   00
    C   4.246700e+001  -3.993000e+000   6.272000e+000
    C   4.476000e+001  -2.156000e+000   3.847000e+000
    C   4.355000e+001  -2.897000e+000   4.405000e+000
    O   4.257800e+001  -3.130000e+000   3.688000e+000
    N   4.359800e+001  -3.277000e+000   5.679000e+000
    H   4.444200e+001  -3.102000e+000   6.219000e+000
    H   4.217700e+001  -4.816000e+000   5.616000e+000
    H   4.442000e+001  -1.608000e+000   2.965000e+000
    H   4.271491e+001  -4.414733e+000   7.257232e+000
    H   4.159705e+001  -3.326808e+000   6.368822e+000
    H   4.518522e+001  -1.451558e+000   4.577031e+000
    H   4.553226e+001  -2.874431e+000   3.534795e+000
=== === ===

backbone-backbone interaction