   12
pair.xyz   00
    C   4.536600e+001   7.380000e-001   6.244000e+000
    C   4.476000e+001  -2.156000e+000   3.847000e+000
    C   4.465800e+001  -1.440000e-001   5.230000e+000
    O   4.352300e+001   1.310000e-001   4.839000e+000
    N   4.532500e+001  -1.220000e+000   4.817000e+000
    H   4.464800e+001   1.454000e+000   6.650000e+000
    H   4.615100e+001   1.291000e+000   5.727000e+000
    H   4.625800e+001  -1.382000e+000   5.179000e+000
    H   4.442000e+001  -1.608000e+000   2.965000e+000
    H   4.581307e+001   1.600670e-001   7.066269e+000
    H   4.553226e+001  -2.874431e+000   3.534795e+000
    H   4.388701e+001  -2.690616e+000   4.249585e+000
=== === ===

backbone-backbone interaction