   12
pair.xyz   00
    C   3.870400e+001  -3.617000e+000   2.649000e+000
    C   3.995800e+001  -9.600000e-002   3.375000e+000
    C   3.908000e+001  -1.216000e+000   2.832000e+000
    O   3.806400e+001  -9.680000e-001   2.181000e+000
    N   3.946300e+001  -2.459000e+000   3.115000e+000
    H   4.033800e+001  -2.613000e+000   3.601000e+000
    H   3.833600e+001  -3.422000e+000   1.639000e+000
    H   3.936800e+001   8.200000e-001   3.441000e+000
    H   4.077600e+001   6.800000e-002   2.672000e+000
    H   3.936231e+001  -4.496660e+000   2.595818e+000
    H   3.783042e+001  -3.841512e+000   3.278641e+000
    H   4.038072e+001  -3.428362e-001   4.360080e+000
=== === ===

backbone-backbone interaction