   15
pair.xyz   00
    C   1.024400e+001  -1.200000e-001   8.024100e+001
    C   1.014900e+001  -4.430000e-001   8.313000e+001
    C   8.210000e+000  -1.930000e+000   8.293300e+001
    C   9.106000e+000  -9.010000e-001   8.090500e+001
    O   8.208000e+000  -1.393000e+000   8.022100e+001
    N   9.151000e+000  -1.042000e+000   8.223800e+001
    H   1.069300e+001   5.580000e-001   8.096400e+001
    H   1.006800e+001   6.450000e-001   8.312000e+001
    H   1.115600e+001  -7.650000e-001   8.286600e+001
    H   8.411000e+000  -2.960000e+000   8.264500e+001
    H   1.098118e+001  -8.624522e-001   7.990140e+001
    H   9.876976e+000   5.274395e-001   7.943099e+001
    H   9.885448e+000  -8.305771e-001   8.412515e+001
    H   8.439763e+000  -1.798604e+000   8.400068e+001
    H   7.150735e+000  -1.710842e+000   8.273318e+001
=== === ===

backbone-backbone interaction