   12
pair.xyz   00
    C   8.966000e+000   1.063170e+002   4.141500e+001
    C   5.584000e+000   1.080190e+002   4.109400e+001
    C   6.753000e+000   1.071300e+002   4.076300e+001
    O   6.710000e+000   1.064190e+002   3.975500e+001
    N   7.794000e+000   1.071750e+002   4.159200e+001
    H   7.780000e+000   1.078060e+002   4.239200e+001
    H   8.769000e+000   1.055020e+002   4.071400e+001
    H   5.956000e+000   1.089630e+002   4.148900e+001
    H   4.968000e+000   1.075310e+002   4.185100e+001
    H   9.834152e+000   1.068962e+002   4.106745e+001
    H   9.236046e+000   1.058558e+002   4.237645e+001
    H   5.003516e+000   1.081896e+002   4.017534e+001
=== === ===

backbone-backbone interaction