   12
pair.xyz   00
    C   7.930000e+000   8.197000e+000   1.549100e+001
    C   7.910000e+000   9.388000e+000   1.910000e+001
    C   8.432000e+000   8.987000e+000   1.772500e+001
    O   9.636000e+000   9.087000e+000   1.747400e+001
    N   7.538000e+000   8.573000e+000   1.684200e+001
    H   6.561000e+000   8.532000e+000   1.711100e+001
    H   8.630000e+000   7.362000e+000   1.554000e+001
    H   8.689000e+000   9.966000e+000   1.960000e+001
    H   7.022260e+000   7.857671e+000   1.497055e+001
    H   8.433362e+000   9.034738e+000   1.498620e+001
    H   7.007384e+000   1.001306e+001   1.903230e+001
    H   7.675862e+000   8.498706e+000   1.970360e+001
=== === ===

backbone-backbone interaction