   12
pair.xyz   00
    C   1.923100e+001   1.660100e+001   2.471000e+000
    C   2.018100e+001   1.721300e+001  -1.142000e+000
    C   1.939200e+001   1.726700e+001   1.580000e-001
    O   1.835600e+001   1.793700e+001   2.510000e-001
    N   1.987700e+001   1.655300e+001   1.167000e+000
    H   2.070600e+001   1.598000e+001   1.042000e+000
    H   1.819700e+001   1.626700e+001   2.371000e+000
    H   1.987900e+001   1.807400e+001  -1.743000e+000
    H   1.975822e+001   1.591184e+001   3.147090e+000
    H   1.921946e+001   1.760590e+001   2.918263e+000
    H   2.126724e+001   1.726580e+001  -9.768007e-001
    H   1.993742e+001   1.630233e+001  -1.708882e+000
=== === ===

backbone-backbone interaction