   12
pair.xyz   00
    C   3.124000e+000   9.866000e+000   1.642500e+001
    C   5.402000e+000   1.217400e+001   1.835300e+001
    C   4.291000e+000   1.077800e+001   1.677100e+001
    O   5.179000e+000   1.100100e+001   1.594500e+001
    N   4.288000e+000   1.129900e+001   1.801100e+001
    H   3.417000e+000   9.280000e+000   1.555200e+001
    H   3.558000e+000   1.109300e+001   1.868500e+001
    H   5.501000e+000   1.293800e+001   1.757900e+001
    H   2.899551e+000   9.196430e+000   1.726839e+001
    H   2.242646e+000   1.047373e+001   1.617226e+001
    H   5.247774e+000   1.269649e+001   1.930862e+001
    H   6.350498e+000   1.161741e+001   1.837673e+001
=== === ===

backbone-backbone interaction