   12
pair.xyz   00
    C   8.721000e+000   1.173200e+001   1.428600e+001
    C   7.930000e+000   8.197000e+000   1.549100e+001
    C   8.630000e+000   9.362000e+000   1.478900e+001
    O   9.663000e+000   9.179000e+000   1.413100e+001
    N   8.092000e+000   1.058800e+001   1.493100e+001
    H   7.234000e+000   1.071400e+001   1.545800e+001
    H   8.847000e+000   1.153800e+001   1.321900e+001
    H   8.078000e+000   1.260400e+001   1.440900e+001
    H   8.630000e+000   7.362000e+000   1.554000e+001
    H   9.699842e+000   1.195960e+001   1.473329e+001
    H   7.633867e+000   8.481046e+000   1.651160e+001
    H   7.022260e+000   7.857671e+000   1.497055e+001
=== === ===

backbone-backbone interaction