   12
pair.xyz   00
    C   2.415000e+001   1.532600e+001   2.079000e+000
    C   2.365300e+001   1.838900e+001  -1.290000e-001
    C   2.361600e+001   1.667600e+001   1.587000e+000
    O   2.278100e+001   1.730200e+001   2.250000e+000
    N   2.408400e+001   1.711300e+001   4.200000e-001
    H   2.353300e+001   1.503800e+001   2.931000e+000
    H   2.478200e+001   1.656500e+001  -7.800000e-002
    H   2.385300e+001   1.917300e+001   6.040000e-001
    H   2.406654e+001   1.454630e+001   1.307571e+000
    H   2.518839e+001   1.540850e+001   2.432478e+000
    H   2.421638e+001   1.861882e+001  -1.045397e+000
    H   2.256575e+001   1.837890e+001  -2.956595e-001
=== === ===

backbone-backbone interaction