   12
pair.xyz   00
    C   1.875200e+001   2.182600e+001   8.310000e-001
    C   2.047800e+001   1.999400e+001   3.684000e+000
    C   1.957100e+001   2.098300e+001   2.948000e+000
    O   1.879800e+001   2.171600e+001   3.575000e+000
    N   1.961300e+001   2.095800e+001   1.612000e+000
    H   2.025900e+001   2.032800e+001   1.141000e+000
    H   1.893500e+001   2.286500e+001   1.112000e+000
    H   2.015200e+001   1.994600e+001   4.724000e+000
    H   1.896956e+001   2.170930e+001  -2.409372e-001
    H   1.768366e+001   2.164180e+001   1.017363e+000
    H   2.039533e+001   1.899140e+001   3.239069e+000
    H   2.153053e+001   2.031319e+001   3.666862e+000
=== === ===

backbone-backbone interaction