   12
pair.xyz   00
    C   1.612600e+001   2.469500e+001   4.180000e+000
    C   1.548400e+001   2.107500e+001   5.123000e+000
    C   1.523300e+001   2.256400e+001   4.962000e+000
    O   1.420600e+001   2.309700e+001   5.395000e+000
    N   1.619000e+001   2.323900e+001   4.331000e+000
    H   1.701700e+001   2.274400e+001   4.018000e+000
    H   1.600900e+001   2.514900e+001   5.164000e+000
    H   1.456500e+001   2.062500e+001   5.500000e+000
    H   1.705252e+001   2.508081e+001   3.729768e+000
    H   1.523793e+001   2.495896e+001   3.586991e+000
    H   1.573490e+001   2.061439e+001   4.156102e+000
    H   1.628319e+001   2.090656e+001   5.859832e+000
=== === ===

backbone-backbone interaction