   12
pair.xyz   00
    C   3.053500e+001  -2.822000e+000   7.905000e+000
    C   2.993700e+001   9.250000e-001   7.497000e+000
    C   3.006300e+001  -1.398000e+000   8.155000e+000
    O   2.943400e+001  -1.142000e+000   9.185000e+000
    N   3.035700e+001  -4.580000e-001   7.262000e+000
    H   2.966100e+001  -3.438000e+000   8.118000e+000
    H   3.088000e+001  -6.900000e-001   6.421000e+000
    H   3.049300e+001   1.301000e+000   8.362000e+000
    H   3.094324e+001  -3.081175e+000   6.916987e+000
    H   3.126992e+001  -3.064572e+000   8.686702e+000
    H   3.019012e+001   1.561405e+000   6.636235e+000
    H   2.886219e+001   9.910095e-001   7.721576e+000
=== === ===

backbone-backbone interaction