   12
pair.xyz   00
    C  -4.272000e+000  -4.852000e+000   7.742100e+001
    C  -2.944000e+000  -5.517000e+000   7.395400e+001
    C  -3.661000e+000  -4.586000e+000   7.605900e+001
    O  -3.208000e+000  -3.483000e+000   7.576700e+001
    N  -3.641000e+000  -5.614000e+000   7.523200e+001
    H  -5.139000e+000  -5.500000e+000   7.728000e+001
    H  -4.006000e+000  -6.507000e+000   7.554000e+001
    H  -1.908000e+000  -5.244000e+000   7.415800e+001
    H  -3.527240e+000  -5.353497e+000   7.805648e+001
    H  -4.613044e+000  -3.922656e+000   7.790059e+001
    H  -2.976404e+000  -6.486229e+000   7.343482e+001
    H  -3.366973e+000  -4.730649e+000   7.331155e+001
=== === ===

backbone-backbone interaction