   12
pair.xyz   00
    C  -2.944000e+000  -5.517000e+000   7.395400e+001
    C  -5.471000e+000  -3.302000e+000   7.220800e+001
    C  -3.526000e+000  -4.435000e+000   7.307000e+001
    O  -2.787000e+000  -3.741000e+000   7.238800e+001
    N  -4.840000e+000  -4.275000e+000   7.308400e+001
    H  -1.908000e+000  -5.244000e+000   7.415800e+001
    H  -5.403000e+000  -4.860000e+000   7.368400e+001
    H  -5.070000e+000  -3.435000e+000   7.120200e+001
    H  -3.469519e+000  -5.590135e+000   7.491758e+001
    H  -2.976404e+000  -6.486229e+000   7.343482e+001
    H  -6.557336e+000  -3.461272e+000   7.214086e+001
    H  -5.165199e+000  -2.289299e+000   7.250953e+001
=== === ===

backbone-backbone interaction