   12
pair.xyz   00
    C  -5.640000e-001   3.982000e+000   7.205000e+001
    C  -3.329000e+000   2.192000e+000   7.015700e+001
    C  -2.226000e+000   3.197000e+000   7.048500e+001
    O  -1.936000e+000   4.096000e+000   6.970200e+001
    N  -1.598000e+000   3.030000e+000   7.164100e+001
    H  -1.878000e+000   2.275000e+000   7.225900e+001
    H  -9.520000e-001   4.989000e+000   7.188900e+001
    H  -3.578000e+000   2.329000e+000   6.910300e+001
    H  -3.364392e-001   3.901600e+000   7.312320e+001
    H   3.385373e-001   3.899172e+000   7.142665e+001
    H  -2.973866e+000   1.163980e+000   7.032148e+001
    H  -4.223877e+000   2.378819e+000   7.076880e+001
=== === ===

backbone-backbone interaction