   12
pair.xyz   00
    C   1.084500e+001   3.062700e+001   8.971000e+000
    C   8.113000e+000   3.137500e+001   6.455000e+000
    C   9.140000e+000   3.157000e+001   7.533000e+000
    O   9.249000e+000   3.266400e+001   8.092000e+000
    N   9.931000e+000   3.054600e+001   7.823000e+000
    H   9.863000e+000   2.967800e+001   7.301000e+000
    H   1.036300e+001   3.121600e+001   9.755000e+000
    H   8.436000e+000   3.194800e+001   5.586000e+000
    H   7.169000e+000   3.179900e+001   6.802000e+000
    H   1.099607e+001   2.962324e+001   9.394842e+000
    H   1.178980e+001   3.113868e+001   8.735340e+000
    H   7.950744e+000   3.033354e+001   6.140298e+000
=== === ===

backbone-backbone interaction