   12
pair.xyz   00
    C   3.461200e+001  -7.660000e-001   1.769000e+001
    C   3.558500e+001  -1.563000e+000   1.408700e+001
    C   3.531400e+001  -1.429000e+000   1.650800e+001
    O   3.615700e+001  -2.300000e+000   1.669500e+001
    N   3.497200e+001  -1.011000e+000   1.529300e+001
    H   3.521700e+001  -9.230000e-001   1.858200e+001
    H   3.424800e+001  -3.000000e-001   1.521100e+001
    H   3.537500e+001  -2.633000e+000   1.403000e+001
    H   3.451463e+001   3.201562e-001   1.754583e+001
    H   3.361833e+001  -1.211934e+000   1.784414e+001
    H   3.518509e+001  -1.072007e+000   1.318756e+001
    H   3.667713e+001  -1.437262e+000   1.412508e+001
=== === ===

backbone-backbone interaction