   12
pair.xyz   00
    C   3.874900e+001  -5.029000e+000   1.672500e+001
    C   3.935300e+001  -1.431000e+000   1.782100e+001
    C   3.959500e+001  -2.915000e+000   1.758400e+001
    O   4.064100e+001  -3.443000e+000   1.796100e+001
    N   3.863000e+001  -3.593000e+000   1.697200e+001
    H   3.778300e+001  -3.101000e+000   1.670100e+001
    H   3.910100e+001  -5.523000e+000   1.763200e+001
    H   4.030800e+001  -1.003000e+000   1.813900e+001
    H   3.777327e+001  -5.447684e+000   1.643751e+001
    H   3.950293e+001  -5.257638e+000   1.595733e+001
    H   3.900092e+001  -8.957149e-001   1.692685e+001
    H   3.862916e+001  -1.300307e+000   1.863891e+001
=== === ===

backbone-backbone interaction