   12
pair.xyz   00
    C   2.230100e+001   4.761800e+001   6.135500e+001
    C   2.545200e+001   4.636600e+001   5.960100e+001
    C   2.348800e+001   4.759000e+001   6.038800e+001
    O   2.364400e+001   4.847600e+001   5.954700e+001
    N   2.430900e+001   4.654800e+001   6.048900e+001
    H   2.231100e+001   4.668300e+001   6.191800e+001
    H   2.413900e+001   4.583400e+001   6.119300e+001
    H   2.570900e+001   4.730500e+001   5.911300e+001
    H   2.230552e+001   4.845957e+001   6.206333e+001
    H   2.135670e+001   4.763742e+001   6.079115e+001
    H   2.633313e+001   4.602721e+001   6.016565e+001
    H   2.518909e+001   4.562568e+001   5.883106e+001
=== === ===

backbone-backbone interaction