   12
pair.xyz   00
    C   4.357700e+001  -8.788000e+000   1.580300e+001
    C   4.354000e+001  -5.901000e+000   1.827900e+001
    C   4.388800e+001  -7.238000e+000   1.763900e+001
    O   4.468400e+001  -8.004000e+000   1.819300e+001
    N   4.329500e+001  -7.529000e+000   1.648200e+001
    H   4.261500e+001  -6.892000e+000   1.608100e+001
    H   4.368600e+001  -9.567000e+000   1.655900e+001
    H   4.438500e+001  -5.615000e+000   1.890600e+001
    H   4.273883e+001  -9.063316e+000   1.514598e+001
    H   4.451835e+001  -8.744133e+000   1.523560e+001
    H   4.334774e+001  -5.091255e+000   1.755973e+001
    H   4.266677e+001  -6.037172e+000   1.893392e+001
=== === ===

backbone-backbone interaction