   12
pair.xyz   00
    C   1.663900e+001   2.464300e+001   2.693300e+001
    C   1.554200e+001   2.566500e+001   2.344000e+001
    C   1.556300e+001   2.493200e+001   2.478000e+001
    O   1.472000e+001   2.408600e+001   2.505900e+001
    N   1.653300e+001   2.526900e+001   2.562400e+001
    H   1.725300e+001   2.592200e+001   2.533500e+001
    H   1.671100e+001   2.356000e+001   2.682600e+001
    H   1.455600e+001   2.553100e+001   2.299000e+001
    H   1.753293e+001   2.501223e+001   2.745698e+001
    H   1.574381e+001   2.485014e+001   2.753776e+001
    H   1.573368e+001   2.673884e+001   2.358187e+001
    H   1.629827e+001   2.523532e+001   2.276663e+001
=== === ===

backbone-backbone interaction