   12
pair.xyz   00
    C   1.128400e+001   2.461300e+001   2.631000e+001
    C   1.373600e+001   2.654600e+001   2.847200e+001
    C   1.254600e+001   2.567900e+001   2.809400e+001
    O   1.178700e+001   2.524300e+001   2.895900e+001
    N   1.239700e+001   2.541500e+001   2.680000e+001
    H   1.307100e+001   2.578100e+001   2.613900e+001
    H   1.035100e+001   2.508200e+001   2.662700e+001
    H   1.391700e+001   2.639200e+001   2.953900e+001
    H   1.129192e+001   2.458350e+001   2.521042e+001
    H   1.130637e+001   2.359129e+001   2.671695e+001
    H   1.462952e+001   2.625998e+001   2.789770e+001
    H   1.348818e+001   2.759925e+001   2.827389e+001
=== === ===

backbone-backbone interaction