   12
pair.xyz   00
    C   4.022800e+001   9.601100e+001   3.375400e+001
    C   4.019300e+001   9.513300e+001   2.997100e+001
    C   4.026200e+001   9.481200e+001   3.268200e+001
    O   4.048000e+001   9.362700e+001   3.303600e+001
    N   4.005000e+001   9.537700e+001   3.145000e+001
    H   4.047000e+001   9.686500e+001   3.311500e+001
    H   3.979500e+001   9.632600e+001   3.169900e+001
    H   3.976100e+001   9.624900e+001   2.997400e+001
    H   3.924332e+001   9.621177e+001   3.420131e+001
    H   4.100969e+001   9.594586e+001   3.452518e+001
    H   4.120007e+001   9.539676e+001   2.961569e+001
    H   4.000294e+001   9.426923e+001   2.931695e+001
=== === ===

backbone-backbone interaction