   12
pair.xyz   00
    C   3.166500e+001   8.577700e+001   3.850900e+001
    C   3.059500e+001   8.378200e+001   3.542100e+001
    C   3.058100e+001   8.437700e+001   3.683400e+001
    O   2.966700e+001   8.412100e+001   3.761800e+001
    N   3.157100e+001   8.520500e+001   3.715500e+001
    H   3.230500e+001   8.541000e+001   3.648300e+001
    H   3.171800e+001   8.494000e+001   3.920500e+001
    H   3.021800e+001   8.460100e+001   3.480900e+001
    H   3.258916e+001   8.636636e+001   3.860163e+001
    H   3.082371e+001   8.642077e+001   3.880529e+001
    H   3.159977e+001   8.349834e+001   3.507463e+001
    H   2.991158e+001   8.292522e+001   3.532683e+001
=== === ===

backbone-backbone interaction