   12
pair.xyz   00
    C   3.371300e+001   3.939500e+001   5.933300e+001
    C   3.051400e+001   3.822400e+001   6.101600e+001
    C   3.170700e+001   3.826100e+001   6.007200e+001
    O   3.188700e+001   3.736300e+001   5.925100e+001
    N   3.254600e+001   3.928300e+001   6.020000e+001
    H   3.234600e+001   4.001000e+001   6.088400e+001
    H   3.338500e+001   3.933900e+001   5.829300e+001
    H   3.005900e+001   3.723400e+001   6.094500e+001
    H   3.421946e+001   4.035993e+001   5.948272e+001
    H   3.441079e+001   3.856097e+001   5.949880e+001
    H   3.084528e+001   3.840134e+001   6.204983e+001
    H   2.976524e+001   3.897849e+001   6.073298e+001
=== === ===

backbone-backbone interaction