   15
pair.xyz   00
    C   3.026000e+001   4.280300e+001   6.307000e+001
    C   3.224000e+001     43   6.536800e+001
    C   3.366200e+001   4.144800e+001   6.418900e+001
    C   3.160800e+001   4.207600e+001   6.307700e+001
    O   3.196300e+001   4.143200e+001   6.209100e+001
    N   3.238000e+001   4.215100e+001   6.417500e+001
    H   2.963900e+001   4.232500e+001   6.231100e+001
    H   3.164900e+001   4.248000e+001   6.612100e+001
    H   3.183000e+001   4.398500e+001   6.516100e+001
    H   3.431900e+001   4.185400e+001   6.341900e+001
    H   2.973501e+001   4.274266e+001   6.403475e+001
    H   3.039684e+001   4.385595e+001   6.278264e+001
    H   3.327657e+001   4.309304e+001   6.572418e+001
    H   3.406884e+001   4.167306e+001   6.518591e+001
    H   3.354602e+001   4.036454e+001   6.403844e+001
=== === ===

backbone-backbone interaction