   12
pair.xyz   00
    C   3.497500e+001   3.062100e+001   5.530100e+001
    C   3.737000e+001   3.168000e+001   5.805900e+001
    C   3.675300e+001   3.084000e+001   5.695100e+001
    O   3.727100e+001   2.977600e+001   5.661100e+001
    N   3.564700e+001   3.132000e+001   5.638600e+001
    H   3.524400e+001   3.218000e+001   5.674000e+001
    H   3.464600e+001   2.963600e+001   5.563200e+001
    H   3.843400e+001   3.144500e+001   5.809100e+001
    H   3.410150e+001   3.119639e+001   5.496051e+001
    H   3.566714e+001   3.047939e+001   5.445786e+001
    H   3.723885e+001   3.275331e+001   5.785700e+001
    H   3.691667e+001   3.140153e+001   5.902178e+001
=== === ===

backbone-backbone interaction