   12
pair.xyz   00
    C   4.742300e+001   2.537100e+001   1.973500e+001
    C   4.419500e+001   2.699700e+001   1.858600e+001
    C   4.611400e+001   2.558500e+001   1.898700e+001
    O   4.576500e+001   2.483600e+001   1.807700e+001
    N   4.539400e+001   2.664400e+001   1.933000e+001
    H   4.727800e+001   2.554900e+001   2.080000e+001
    H   4.567100e+001   2.721400e+001   2.011800e+001
    H   4.343200e+001   2.623300e+001   1.874500e+001
    H   4.778399e+001   2.434515e+001   1.956974e+001
    H   4.816125e+001   2.609405e+001   1.935791e+001
    H   4.380910e+001   2.796138e+001   1.894801e+001
    H   4.439967e+001   2.704889e+001   1.750645e+001
=== === ===

backbone-backbone interaction