   12
pair.xyz   00
    C   4.354200e+001   2.305100e+001   1.540700e+001
    C   4.707400e+001   2.431200e+001   1.480600e+001
    C   4.577300e+001   2.353200e+001   1.463000e+001
    O   4.564200e+001   2.271400e+001   1.372000e+001
    N   4.482000e+001   2.373800e+001   1.552300e+001
    H   4.498600e+001   2.438000e+001   1.629400e+001
    H   4.372200e+001   2.198800e+001   1.524200e+001
    H   4.753100e+001   2.437900e+001   1.381700e+001
    H   4.295854e+001   2.314836e+001   1.633442e+001
    H   4.295672e+001   2.342016e+001   1.455192e+001
    H   4.691305e+001   2.533134e+001   1.518684e+001
    H   4.776272e+001   2.376305e+001   1.546503e+001
=== === ===

backbone-backbone interaction