   12
pair.xyz   00
    C   4.386400e+001   2.688100e+001   1.053600e+001
    C   4.162200e+001   2.549900e+001   1.325500e+001
    C   4.206400e+001   2.601200e+001   1.190200e+001
    O   4.122500e+001   2.631000e+001   1.105400e+001
    N   4.336900e+001   2.617100e+001   1.170700e+001
    H   4.402100e+001   2.595400e+001   1.246000e+001
    H   4.349500e+001   2.790700e+001   1.056100e+001
    H   4.085000e+001   2.475900e+001   1.303200e+001
    H   4.496194e+001   2.692526e+001   1.058669e+001
    H   4.353106e+001   2.645334e+001   9.578788e+000
    H   4.238172e+001   2.502945e+001   1.389714e+001
    H   4.111519e+001   2.631863e+001   1.378543e+001
=== === ===

backbone-backbone interaction