   12
pair.xyz   00
    C   4.146600e+001   2.850200e+001   5.160000e+000
    C   3.944100e+001   2.817900e+001   8.365000e+000
    C   3.984000e+001   2.861700e+001   6.957000e+000
    O   3.908100e+001   2.929000e+001   6.279000e+000
    N   4.101900e+001   2.819200e+001   6.518000e+000
    H   4.163700e+001   2.768700e+001   7.146000e+000
    H   4.155500e+001   2.958400e+001   5.057000e+000
    H   3.837700e+001   2.838800e+001   8.487000e+000
    H   4.245217e+001   2.803962e+001   5.006115e+000
    H   4.075001e+001   2.816425e+001   4.396273e+000
    H   3.962032e+001   2.710609e+001   8.528433e+000
    H   4.000118e+001   2.877311e+001   9.102042e+000
=== === ===

backbone-backbone interaction