   12
pair.xyz   00
    C   3.585000e+001   2.819200e+001   4.730000e+000
    C   3.890900e+001   2.633100e+001   3.399000e+000
    C   3.764300e+001   2.716500e+001   3.422000e+000
    O   3.715100e+001   2.759400e+001   2.394000e+000
    N   3.709400e+001   2.742400e+001   4.605000e+000
    H   3.753100e+001   2.704600e+001   5.442000e+000
    H   3.510400e+001   2.777900e+001   4.049000e+000
    H   3.931200e+001   2.635700e+001   2.384000e+000
    H   3.548552e+001   2.811267e+001   5.764826e+000
    H   3.594569e+001   2.925536e+001   4.465238e+000
    H   3.966267e+001   2.672795e+001   4.094992e+000
    H   3.868804e+001   2.528380e+001   3.653063e+000
=== === ===

backbone-backbone interaction