   12
pair.xyz   00
    C   3.745400e+001   3.158600e+001   4.164000e+000
    C   3.585000e+001   2.819200e+001   4.730000e+000
    C   3.598300e+001   2.967000e+001   4.362000e+000
    O   3.500900e+001   3.032900e+001   3.971000e+000
    N   3.719200e+001   3.020800e+001   4.509000e+000
    H   3.793800e+001   2.965800e+001   4.922000e+000
    H   3.672200e+001   3.219000e+001   4.681000e+000
    H   3.510400e+001   2.777900e+001   4.049000e+000
    H   3.844926e+001   3.187616e+001   4.531782e+000
    H   3.735949e+001   3.176571e+001   3.082901e+000
    H   3.678259e+001   2.761625e+001   4.636291e+000
    H   3.548552e+001   2.811267e+001   5.764826e+000
=== === ===

backbone-backbone interaction