   12
pair.xyz   00
    C   2.825700e+001   1.103560e+002   3.341500e+001
    C   2.698500e+001   1.078140e+002   3.088100e+001
    C   2.699600e+001   1.088280e+002   3.201800e+001
    O   2.593400e+001   1.091630e+002   3.255600e+001
    N   2.817500e+001   1.093240e+002   3.239200e+001
    H   2.903600e+001   1.089810e+002   3.197900e+001
    H   2.793600e+001   1.099310e+002   3.436600e+001
    H   2.594100e+001   1.078050e+002   3.056400e+001
    H   2.928539e+001   1.107328e+002   3.351705e+001
    H   2.759356e+001   1.111935e+002   3.315325e+001
    H   2.764126e+001   1.081463e+002   3.006312e+001
    H   2.726955e+001   1.068082e+002   3.122359e+001
=== === ===

backbone-backbone interaction