   12
pair.xyz   00
    C   1.521300e+001   1.142340e+002   4.028000e+001
    C   1.583300e+001   1.163980e+002   3.718900e+001
    C   1.518000e+001   1.158930e+002   3.848200e+001
    O   1.422600e+001   1.165100e+002   3.897300e+001
    N   1.573700e+001   1.148190e+002   3.905600e+001
    H   1.649300e+001   1.143360e+002   3.857900e+001
    H   1.415500e+001   1.140240e+002   4.015300e+001
    H   1.543200e+001   1.173910e+002   3.696600e+001
    H   1.574567e+001   1.132940e+002   4.048652e+001
    H   1.524183e+001   1.149222e+002   4.113761e+001
    H   1.692494e+001   1.164577e+002   3.730772e+001
    H   1.558522e+001   1.157337e+002   3.634800e+001
=== === ===

backbone-backbone interaction