   12
pair.xyz   00
    C   1.854700e+001   1.127200e+002   3.547400e+001
    C   1.990700e+001   1.134770e+002   3.896800e+001
    C   1.863800e+001   1.129940e+002   3.696800e+001
    O   1.758300e+001   1.131390e+002   3.759900e+001
    N   1.984300e+001   1.131220e+002   3.754400e+001
    H   1.771300e+001   1.133610e+002   3.518300e+001
    H   2.070500e+001   1.129070e+002   3.704900e+001
    H   1.919000e+001   1.128630e+002   3.950900e+001
    H   1.943873e+001   1.130646e+002   3.492985e+001
    H   1.828163e+001   1.116819e+002   3.522495e+001
    H   2.090603e+001   1.133084e+002   3.939636e+001
    H   1.957357e+001   1.145124e+002   3.913185e+001
=== === ===

backbone-backbone interaction