   12
pair.xyz   00
    C   4.950200e+001   2.538100e+001   2.949300e+001
    C   4.576300e+001   2.588300e+001   2.900800e+001
    C   4.819700e+001   2.592300e+001   2.889700e+001
    O   4.819900e+001   2.667600e+001   2.792700e+001
    N   4.709400e+001   2.552800e+001   2.951300e+001
    H   4.930100e+001   2.502200e+001   3.050600e+001
    H   4.716800e+001   2.492200e+001   3.032200e+001
    H   4.570500e+001   2.564700e+001   2.794400e+001
    H   4.988568e+001   2.456606e+001   2.886159e+001
    H   5.027838e+001   2.615738e+001   2.955973e+001
    H   4.499355e+001   2.529834e+001   2.953347e+001
    H   4.555129e+001   2.695755e+001   2.911058e+001
=== === ===

backbone-backbone interaction