   12
pair.xyz   00
    C   4.827300e+001   3.047900e+001   2.765500e+001
    C   4.629600e+001   2.847400e+001   2.510100e+001
    C   4.753200e+001   3.013600e+001   2.637000e+001
    O   4.741000e+001   3.096700e+001   2.548200e+001
    N   4.704600e+001   2.889700e+001   2.627700e+001
    H   4.824600e+001   3.156700e+001   2.776600e+001
    H   4.726200e+001   2.822400e+001   2.700400e+001
    H   4.693800e+001   2.852200e+001   2.422000e+001
    H   4.779481e+001   3.000687e+001   2.852588e+001
    H   4.932228e+001   3.015311e+001   2.760200e+001
    H   4.595848e+001   2.743677e+001   2.524327e+001
    H   4.542364e+001   2.912286e+001   2.493374e+001
=== === ===

backbone-backbone interaction