   12
pair.xyz   00
    C   1.432700e+001   9.720100e+001   5.521400e+001
    C   1.444900e+001   1.008410e+002   5.626200e+001
    C   1.401300e+001   9.937400e+001   5.618500e+001
    O   1.303500e+001   9.894900e+001   5.683700e+001
    N   1.470700e+001   9.859900e+001   5.536000e+001
    H   1.547500e+001   9.895700e+001   5.480100e+001
    H   1.331800e+001   9.700400e+001   5.556500e+001
    H   1.534700e+001   1.010170e+002   5.566100e+001
    H   1.445411e+001   9.681403e+001   5.419219e+001
    H   1.486439e+001   9.653643e+001   5.590650e+001
    H   1.360215e+001   1.014398e+002   5.589553e+001
    H   1.465060e+001   1.011516e+002   5.729780e+001
=== === ===

backbone-backbone interaction