   12
pair.xyz   00
    C   1.970500e+001   9.284600e+001   4.596600e+001
    C   1.735500e+001   9.409100e+001   4.868400e+001
    C   1.868700e+001   9.279400e+001   4.709000e+001
    O   1.833000e+001   9.173200e+001   4.758000e+001
    N   1.826800e+001   9.397200e+001   4.753700e+001
    H   1.926400e+001   9.348700e+001   4.519700e+001
    H   1.863500e+001   9.481900e+001   4.711100e+001
    H   1.783600e+001   9.369700e+001   4.958000e+001
    H   2.064351e+001   9.329087e+001   4.632835e+001
    H   1.990490e+001   9.185928e+001   4.552280e+001
    H   1.709600e+001   9.514750e+001   4.884746e+001
    H   1.643420e+001   9.349839e+001   4.857938e+001
=== === ===

backbone-backbone interaction