   12
pair.xyz   00
    C   1.478000e+001      2   1.115000e+001
    C   1.712600e+001   4.550000e+000   9.528000e+000
    C   1.551000e+001   2.783000e+000   1.005500e+001
    O   1.530400e+001   2.548000e+000   8.860000e+000
    N   1.637800e+001   3.707000e+000   1.045900e+001
    H   1.465700e+001   9.760000e-001   1.079500e+001
    H   1.652900e+001   3.839000e+000   1.145300e+001
    H   1.658700e+001   4.621000e+000   8.584000e+000
    H   1.534760e+001   1.993216e+000   1.209223e+001
    H   1.378416e+001   2.434250e+000   1.132241e+001
    H   1.719936e+001   5.566954e+000   9.940823e+000
    H   1.813360e+001   4.175665e+000   9.294311e+000
=== === ===

backbone-sidechain interaction