   16
pair.xyz   01
    C   2.888000e+001   2.777100e+001  -6.882000e+000
    C   2.804800e+001   2.701900e+001  -5.901000e+000
    C   3.121300e+001   2.751900e+001  -7.759000e+000
    N   3.010800e+001   2.701600e+001  -7.201000e+000
    N   3.124300e+001   2.878100e+001  -8.139000e+000
    N   3.225500e+001   2.677000e+001  -8.022000e+000
    H   2.830200e+001   2.795800e+001  -7.790000e+000
    H   2.914500e+001   2.872900e+001  -6.429000e+000
    H   2.731200e+001   2.770300e+001  -5.477000e+000
    H   2.868600e+001   2.665300e+001  -5.095000e+000
    H   3.012200e+001   2.601300e+001  -7.002000e+000
    H   3.041700e+001   2.934700e+001  -8.051000e+000
    H   3.205700e+001   2.915600e+001  -8.597000e+000
    H   3.228000e+001   2.583000e+001  -7.621000e+000
    H   3.308300e+001   2.715900e+001  -8.437000e+000
    H   2.752437e+001   2.617259e+001  -6.369397e+000
=== === ===

sidechain-sidechain interaction