   06
pair.xyz   00
    C   2.497000e+001  -8.427000e+000  -2.149400e+001
    O   2.364000e+001  -7.954000e+000  -2.141000e+001
    H   2.328000e+001  -7.918000e+000  -2.231000e+001
    H   2.554600e+001  -7.825000e+000  -2.219700e+001
    H   2.494900e+001  -9.461000e+000  -2.184400e+001
    H   2.541102e+001  -8.384203e+000  -2.048719e+001
=== === ===

sidechain-sidechain interaction