   16
pair.xyz   00
    C   6.815000e+000   8.703700e+001   2.365900e+001
    C   7.478000e+000   8.592500e+001   2.444700e+001
    C   8.819000e+000   8.605200e+001   2.487300e+001
    C   6.753000e+000   8.477900e+001   2.480400e+001
    C   9.441000e+000   8.506300e+001   2.566200e+001
    C   7.367000e+000   8.378700e+001   2.558300e+001
    C   8.695000e+000   8.392600e+001   2.601100e+001
    O   9.206000e+000   8.289500e+001   2.676300e+001
    H      6   8.662200e+001   2.306200e+001
    H   7.551000e+000   8.748300e+001   2.298700e+001
    H   9.369000e+000   8.693700e+001   2.458200e+001
    H   5.724000e+000   8.465700e+001   2.448400e+001
    H   1.046400e+001   8.516000e+001   2.600500e+001
    H   6.819000e+000   8.289700e+001   2.586400e+001
    H   1.012200e+001   8.302600e+001   2.702500e+001
    H   6.425955e+000   8.786140e+001   2.427463e+001
=== === ===

sidechain-sidechain interaction