   12
pair.xyz   00
    C   4.336800e+001   3.542200e+001   2.174800e+001
    C   4.466000e+001   3.259900e+001   2.391500e+001
    C   4.400200e+001   3.473000e+001   2.294200e+001
    O   4.449100e+001   3.537000e+001   2.387000e+001
    N   4.401200e+001   3.340800e+001   2.289800e+001
    H   4.270600e+001   3.471200e+001   2.126100e+001
    H   4.353900e+001   3.292100e+001   2.214000e+001
    H   4.556500e+001   3.310800e+001   2.424400e+001
    H   4.280416e+001   3.632006e+001   2.204053e+001
    H   4.415500e+001   3.568481e+001   2.102581e+001
    H   4.400586e+001   3.244711e+001   2.478623e+001
    H   4.495874e+001   3.162791e+001   2.349342e+001
=== === ===

backbone-sidechain interaction