   22
pair.xyz   00
    C  -1.787000e+000  -2.203700e+001  -3.912000e+000
    C  -8.870000e-001  -2.315100e+001  -3.372000e+000
    C  -1.344000e+000  -1.834900e+001  -3.053000e+000
    C  -5.549000e+000  -2.188300e+001  -4.516000e+000
    C  -3.264000e+000  -2.241800e+001  -3.775000e+000
    C  -1.751000e+000  -1.960500e+001  -3.819000e+000
    O  -3.639000e+000  -2.327700e+001  -2.972000e+000
    O  -2.299000e+000  -1.952200e+001  -4.924000e+000
    N  -1.499000e+000  -2.077400e+001  -3.240000e+000
    N  -4.091000e+000  -2.175000e+001  -4.570000e+000
    H  -1.566000e+000  -2.192500e+001  -4.973000e+000
    H  -1.065000e+000  -2.079500e+001  -2.324000e+000
    H   1.580000e-001  -2.285900e+001  -3.465000e+000
    H  -1.096000e+000  -2.331000e+001  -2.314000e+000
    H  -3.696000e+000  -2.101300e+001  -5.143000e+000
    H  -6.760000e-001  -1.863300e+001  -2.235000e+000
    H  -5.864000e+000  -2.197900e+001  -3.475000e+000
    H  -1.038447e+000  -2.409463e+001  -3.916628e+000
    H  -8.112144e-001  -1.766625e+001  -3.731228e+000
    H  -2.224265e+000  -1.784816e+001  -2.623708e+000
    H  -6.013012e+000  -2.097704e+001  -4.933042e+000
    H  -5.900022e+000  -2.278254e+001  -5.042893e+000
=== === ===

backbone-sidechain interaction