   12
pair.xyz   00
    C  -5.807000e+000  -2.448800e+001  -7.274000e+000
    C  -3.806000e+000  -2.566900e+001  -1.027600e+001
    C  -4.703000e+000  -2.461300e+001  -8.308000e+000
    O  -3.727000e+000  -2.386400e+001  -8.283000e+000
    N  -4.831000e+000  -2.554800e+001  -9.235000e+000
    H  -5.834000e+000  -2.540300e+001  -6.680000e+000
    H  -5.646000e+000  -2.614600e+001  -9.256000e+000
    H  -2.924000e+000  -2.509600e+001  -9.998000e+000
    H  -5.548738e+000  -2.363369e+001  -6.630995e+000
    H  -6.784890e+000  -2.433518e+001  -7.753977e+000
    H  -3.429015e+000  -2.670117e+001  -1.032612e+001
    H  -4.098202e+000  -2.521076e+001  -1.123236e+001
=== === ===

backbone-sidechain interaction