   08
pair.xyz   01
    C   1.201800e+001   7.850000e+000   2.541900e+001
    N   1.166000e+001   7.831000e+000   2.686900e+001
    H   1.077200e+001   7.371000e+000   2.703200e+001
    H   1.235700e+001   7.325000e+000   2.740600e+001
    H   1.161000e+001   8.769000e+000   2.726300e+001
    H   1.214300e+001   6.828000e+000   2.504400e+001
    H   1.297700e+001   8.364000e+000   2.529300e+001
    H   1.126933e+001   8.364663e+000   2.479882e+001
=== === ===

backbone-sidechain interaction