   12
pair.xyz   00
    C   1.994300e+001   8.276200e+001   3.062700e+001
    C   2.377200e+001   8.258500e+001   3.085700e+001
    C   2.140600e+001   8.277800e+001   3.018200e+001
    O   2.169000e+001   8.308600e+001   2.902500e+001
    N   2.232300e+001   8.243600e+001   3.108000e+001
    H   1.933400e+001   8.233300e+001   2.982800e+001
    H   2.200800e+001   8.214800e+001   3.200200e+001
    H   2.397400e+001   8.295700e+001   2.984900e+001
    H   1.973084e+001   8.218175e+001   3.153711e+001
    H   1.964599e+001   8.379077e+001   3.087881e+001
    H   2.413201e+001   8.332636e+001   3.158555e+001
    H   2.434456e+001   8.164592e+001   3.087435e+001
=== === ===

backbone-sidechain interaction