   12
pair.xyz   00
    C   2.640800e+001   1.921900e+001   2.176300e+001
    C   2.682800e+001   1.947600e+001   1.800900e+001
    C   2.616000e+001   1.902200e+001   2.028700e+001
    O   2.522400e+001   1.832500e+001   1.990100e+001
    N   2.700200e+001   1.962000e+001   1.944900e+001
    H   2.728800e+001   1.985100e+001   2.186600e+001
    H   2.775900e+001   2.020000e+001   1.980700e+001
    H   2.586900e+001   1.992900e+001   1.774300e+001
    H   2.554072e+001   1.968987e+001   2.224892e+001
    H   2.664355e+001   1.825191e+001   2.223125e+001
    H   2.762946e+001   2.000479e+001   1.747230e+001
    H   2.680850e+001   1.841285e+001   1.772732e+001
=== === ===

backbone-sidechain interaction