   09
pair.xyz   00
    C   3.043900e+001   5.934400e+001   5.131400e+001
    C   3.005900e+001   5.823300e+001   5.033400e+001
    O   3.121000e+001   6.033800e+001   5.066800e+001
    H   2.952400e+001   5.980400e+001   5.169200e+001
    H   3.098700e+001   5.892500e+001   5.215900e+001
    H   2.930900e+001   5.758500e+001   5.079300e+001
    H   3.090700e+001   6.043000e+001   4.975200e+001
    H   3.094574e+001   5.765065e+001   5.004320e+001
    H   2.964966e+001   5.866983e+001   4.941117e+001
=== === ===

sidechain-sidechain interaction