   06
pair.xyz   00
    C   2.011900e+001   1.734300e+001   3.179900e+001
    O   1.937500e+001   1.613000e+001   3.188400e+001
    H   1.974600e+001   1.559100e+001   3.259800e+001
    H   2.035800e+001   1.767700e+001   3.280800e+001
    H   2.105491e+001   1.717101e+001   3.124720e+001
    H   1.951443e+001   1.812321e+001   3.131345e+001
=== === ===

sidechain-sidechain interaction