   08
pair.xyz   01
    C   1.566900e+001   1.693600e+001   3.030000e+001
    N   1.647800e+001   1.584800e+001   3.091200e+001
    H   1.743600e+001   1.584300e+001   3.057500e+001
    H   1.653200e+001   1.597200e+001   3.191900e+001
    H   1.605600e+001   1.494000e+001   3.074900e+001
    H   1.612300e+001   1.791700e+001   3.048000e+001
    H   1.467200e+001   1.694600e+001   3.075600e+001
    H   1.554864e+001   1.677721e+001   2.921820e+001
=== === ===

sidechain-sidechain interaction