   06
pair.xyz   00
    C   4.018600e+001   3.473700e+001   6.146200e+001
    O   3.962300e+001   3.389300e+001   6.244500e+001
    H   3.924800e+001   3.316400e+001   6.190100e+001
    H   3.939000e+001   3.516700e+001   6.085100e+001
    H   4.082800e+001   3.414100e+001   6.081300e+001
    H   4.078809e+001   3.554194e+001   6.190871e+001
=== === ===

sidechain-sidechain interaction