   12
pair.xyz   00
    C   4.403200e+001  -9.385000e+000   2.196000e+000
    C   4.704600e+001  -1.120900e+001   3.633000e+000
    C   4.548000e+001  -9.691000e+000   2.569000e+000
    O   4.638800e+001  -8.917000e+000   2.253000e+000
    N   4.570200e+001  -1.081200e+001   3.252000e+000
    H   4.399600e+001  -9.405000e+000   1.106000e+000
    H   4.492700e+001  -1.142500e+001   3.474000e+000
    H   4.700700e+001  -1.223600e+001   3.998000e+000
    H   4.769400e+001  -1.118800e+001   2.755000e+000
    H   4.332385e+001  -1.012085e+001   2.604721e+000
    H   4.376790e+001  -8.357858e+000   2.487940e+000
    H   4.750418e+001  -1.059423e+001   4.421757e+000
=== === ===

backbone-sidechain interaction