   08
pair.xyz   00
    C   3.222800e+001   1.766100e+001   4.079300e+001
    C   3.273900e+001   1.782700e+001   4.222000e+001
    H   3.127600e+001   1.818300e+001   4.068100e+001
    H   3.293900e+001   1.808700e+001   4.009200e+001
    H   3.208500e+001   1.660200e+001   4.057300e+001
    H   3.365200e+001   1.724100e+001   4.230900e+001
    H   3.198576e+001   1.744925e+001   4.292706e+001
    H   3.297385e+001   1.888200e+001   4.242450e+001
=== === ===

sidechain-sidechain interaction