   13
pair.xyz   01
    C   3.052200e+001   1.645500e+001   3.676900e+001
    C   3.284700e+001   1.683900e+001   3.751600e+001
    N   3.171100e+001   1.728100e+001   3.699900e+001
    N   3.297000e+001   1.557400e+001   3.787200e+001
    N   3.386100e+001   1.766400e+001   3.768700e+001
    H   3.167300e+001   1.825100e+001   3.672000e+001
    H   3.222000e+001   1.492800e+001   3.769400e+001
    H   3.383600e+001   1.523200e+001   3.825700e+001
    H   3.379000e+001   1.862600e+001   3.739300e+001
    H   3.474400e+001   1.731900e+001   3.802700e+001
    H   3.051900e+001   1.553500e+001   3.735500e+001
    H   3.050100e+001   1.617900e+001   3.571200e+001
    H   2.960707e+001   1.702401e+001   3.699065e+001
=== === ===

sidechain-sidechain interaction