   13
pair.xyz   01
    C   3.565400e+001   5.593400e+001   5.547700e+001
    C   3.512700e+001   5.750800e+001   5.729900e+001
    N   3.477000e+001   5.684600e+001   5.620900e+001
    N   3.633900e+001   5.735900e+001   5.779800e+001
    N   3.427500e+001   5.831700e+001   5.789100e+001
    H   3.383200e+001   5.699500e+001   5.585400e+001
    H   3.698000e+001   5.670200e+001   5.738500e+001
    H   3.661300e+001   5.785700e+001   5.863200e+001
    H   3.336200e+001   5.847800e+001   5.749000e+001
    H   3.456100e+001   5.887900e+001   5.867800e+001
    H   3.596900e+001   5.511400e+001   5.612700e+001
    H   3.653600e+001   5.648900e+001   5.514800e+001
    H   3.516746e+001   5.550619e+001   5.458803e+001
=== === ===

sidechain-sidechain interaction