   12
pair.xyz   00
    C   2.519600e+001   2.288100e+001  -1.400000e-002
    C   2.570500e+001   2.627600e+001  -1.587000e+000
    C   2.493700e+001   2.412300e+001  -8.180000e-001
    O   2.392100e+001   2.418300e+001  -1.517000e+000
    N   2.582500e+001   2.510500e+001  -7.450000e-001
    H   2.515200e+001   2.203900e+001  -7.000000e-001
    H   2.662100e+001   2.502300e+001  -1.270000e-001
    H   2.667100e+001   2.644300e+001  -2.066000e+000
    H   2.497900e+001   2.613100e+001  -2.388000e+000
    H   2.614006e+001   2.285622e+001   5.500335e-001
    H   2.441808e+001   2.276171e+001   7.545166e-001
    H   2.542706e+001   2.718715e+001  -1.036953e+000
=== === ===

backbone-sidechain interaction