   13
pair.xyz   01
    C   3.453700e+001   9.988600e+001   3.643800e+001
    C   3.396200e+001   1.020990e+002   3.545100e+001
    N   3.484000e+001   1.012480e+002   3.596600e+001
    N   3.271400e+001   1.017400e+002   3.522500e+001
    N   3.437000e+001   1.033020e+002   3.510300e+001
    H   3.578800e+001   1.015710e+002   3.610600e+001
    H   3.240600e+001   1.007970e+002   3.543900e+001
    H   3.205700e+001   1.024110e+002   3.484200e+001
    H   3.534000e+001   1.035650e+002   3.521900e+001
    H   3.371700e+001   1.039720e+002   3.471000e+001
    H   3.348500e+001   9.983700e+001   3.671800e+001
    H   3.514900e+001   9.967600e+001   3.731400e+001
    H   3.472260e+001   9.908318e+001   3.570928e+001
=== === ===

sidechain-sidechain interaction