   22
pair.xyz   00
    C   2.559000e+001   2.993900e+001  -6.500000e-001
    C   2.626200e+001   3.108100e+001  -1.424000e+000
    C   2.570500e+001   2.627600e+001  -1.587000e+000
    C   2.186300e+001   3.009400e+001  -1.358000e+000
    C   2.411100e+001   3.029500e+001  -5.050000e-001
    C   2.532400e+001   2.752500e+001  -8.330000e-001
    O   2.372500e+001   3.100800e+001   4.200000e-001
    O   2.459700e+001   2.748600e+001   1.560000e-001
    N   2.578000e+001   2.866500e+001  -1.337000e+000
    N   2.327300e+001   2.982400e+001  -1.430000e+000
    H   2.601400e+001   2.988200e+001   3.520000e-001
    H   2.638500e+001   2.864000e+001  -2.148000e+000
    H   2.598500e+001   3.101200e+001  -2.478000e+000
    H   2.588000e+001   3.203200e+001  -1.045000e+000
    H   2.364300e+001   2.928500e+001  -2.203000e+000
    H   2.667100e+001   2.644300e+001  -2.066000e+000
    H   2.497900e+001   2.613100e+001  -2.388000e+000
    H   2.172000e+001   3.115500e+001  -1.141000e+000
    H   2.735777e+001   3.110709e+001  -1.331236e+000
    H   2.579621e+001   2.538598e+001  -9.470387e-001
    H   2.137370e+001   2.986884e+001  -2.317109e+000
    H   2.135117e+001   2.955691e+001  -5.458638e-001
=== === ===

backbone-sidechain interaction