   11
pair.xyz   01
    C   2.622500e+001   3.256100e+001   2.085000e+000
    C     27   3.282400e+001   3.384000e+000
    N   2.494000e+001   3.326600e+001   2.081000e+000
    H   2.684100e+001   3.289000e+001   1.240000e+000
    H   2.605400e+001   3.148400e+001   1.986000e+000
    H   2.637300e+001   3.257500e+001   4.241000e+000
    H   2.724400e+001   3.388600e+001   3.430000e+000
    H   2.504400e+001   3.426300e+001   2.240000e+000
    H   2.445600e+001   3.313100e+001   1.199000e+000
    H   2.432900e+001   3.286800e+001   2.793000e+000
    H   2.791699e+001   3.221801e+001   3.427701e+000
=== === ===

backbone-sidechain interaction