   11
pair.xyz   01
    C   3.536500e+001   3.426700e+001   5.274000e+000
    C   3.665600e+001   3.512000e+001   5.507000e+000
    N   3.413600e+001   3.501000e+001   4.885000e+000
    H   3.557400e+001   3.357300e+001   4.454000e+000
    H   3.517100e+001   3.366100e+001   6.165000e+000
    H   3.687700e+001   3.568900e+001   4.602000e+000
    H   3.748800e+001   3.443100e+001   5.663000e+000
    H   3.424000e+001   3.542300e+001   3.961000e+000
    H   3.333700e+001   3.437900e+001   4.877000e+000
    H   3.392800e+001   3.576700e+001   5.530000e+000
    H   3.663824e+001   3.581252e+001   6.361461e+000
=== === ===

backbone-sidechain interaction