   12
pair.xyz   00
    C   3.325800e+001   3.104500e+001   9.300000e-001
    C   3.160700e+001   3.447400e+001   1.279000e+000
    C   3.287200e+001   3.239100e+001   1.530000e+000
    O   3.332300e+001   3.272900e+001   2.634000e+000
    N   3.203200e+001   3.315600e+001   8.320000e-001
    H   3.296800e+001   3.102900e+001  -1.220000e-001
    H   3.168700e+001   3.281900e+001  -5.800000e-002
    H   3.244900e+001   3.494500e+001   1.792000e+000
    H   3.434540e+001   3.091858e+001   1.037611e+000
    H   3.272192e+001   3.024089e+001   1.455382e+000
    H   3.133749e+001   3.511811e+001   4.290063e-001
    H   3.077171e+001   3.442121e+001   1.992794e+000
=== === ===

backbone-sidechain interaction