   15
pair.xyz   00
    C   2.983500e+001   3.371400e+001   4.535000e+000
    C   2.870700e+001   3.514700e+001   6.851000e+000
    C   3.072100e+001   3.471000e+001   8.093000e+000
    C   3.065600e+001   3.394100e+001   5.802000e+000
    O   3.180500e+001   3.349000e+001   5.889000e+000
    N   3.004600e+001   3.457100e+001   6.809000e+000
    H   2.909700e+001   3.450900e+001   4.431000e+000
    H   2.799100e+001   3.438100e+001   7.139000e+000
    H   2.841000e+001   3.564500e+001   5.929000e+000
    H   3.169300e+001   3.519000e+001   7.960000e+000
    H   3.051719e+001   3.374819e+001   3.672766e+000
    H   2.932681e+001   3.274109e+001   4.606988e+000
    H   2.879488e+001   3.589650e+001   7.651334e+000
    H   3.006115e+001   3.536120e+001   8.685063e+000
    H   3.083611e+001   3.372796e+001   8.575026e+000
=== === ===

backbone-sidechain interaction